
     RDKit          2D

 57 65  0  0  0  0  0  0  0  0999 V2000
    3.0613    7.3456    0.0000 C   0  0  0  0  0  0  0  0  0  0  0  0
    1.8478    6.4639    0.0000 C   0  0  0  0  0  0  0  0  0  0  0  0
    0.4775    7.0740    0.0000 C   0  0  0  0  0  0  0  0  0  0  0  0
    0.3207    8.5658    0.0000 C   0  0  0  0  0  0  0  0  0  0  0  0
    1.5342    9.4474    0.0000 C   0  0  0  0  0  0  0  0  0  0  0  0
    2.9046    8.8373    0.0000 C   0  0  0  0  0  0  0  0  0  0  0  0
    1.3774   10.9392    0.0000 C   0  0  0  0  0  0  0  0  0  0  0  0
    2.5910   11.8209    0.0000 C   0  0  0  0  0  0  0  0  0  0  0  0
    2.4342   13.3127    0.0000 C   0  0  0  0  0  0  0  0  0  0  0  0
    1.0639   13.9228    0.0000 O   0  0  0  0  0  0  0  0  0  0  0  0
   -0.1497   13.0411    0.0000 C   0  0  0  0  0  0  0  0  0  0  0  0
    0.0071   11.5493    0.0000 C   0  0  0  0  0  0  0  0  0  0  0  0
    1.5000    2.5981    0.0000 C   0  0  0  0  0  0  0  0  0  0  0  0
    0.8899    3.9684    0.0000 C   0  0  0  0  0  0  0  0  0  0  0  0
    2.0046    4.9721    0.0000 C   0  0  0  0  0  0  0  0  0  0  0  0
    3.3037    4.2221    0.0000 N   0  0  0  0  0  0  0  0  0  0  0  0
    2.9918    2.7549    0.0000 C   0  0  0  0  0  0  0  0  0  0  0  0
    4.4317    6.7354    0.0000 C   0  0  0  0  0  0  0  0  0  0  0  0
    5.6452    7.6171    0.0000 N   0  0  0  0  0  0  0  0  0  0  0  0
    7.0155    7.0070    0.0000 C   0  0  0  0  0  0  0  0  0  0  0  0
    7.1723    5.5152    0.0000 O   0  0  0  0  0  0  0  0  0  0  0  0
    7.8607    2.8537    0.0000 C   0  0  0  0  0  0  0  0  0  0  0  0
    8.4708    1.4834    0.0000 N   0  0  0  0  0  0  0  0  0  0  0  0
    7.5891    0.2698    0.0000 C   0  0  0  0  0  0  0  0  0  0  0  0
    6.0974    0.4266    0.0000 C   0  0  0  0  0  0  0  0  0  0  0  0
    4.9826   -0.5771    0.0000 N   0  0  0  0  0  0  0  0  0  0  0  0
    3.6836    0.1729    0.0000 C   0  0  0  0  0  0  0  0  0  0  0  0
    3.9955    1.6402    0.0000 N   0  0  0  0  0  0  0  0  0  0  0  0
    5.4873    1.7969    0.0000 C   0  0  0  0  0  0  0  0  0  0  0  0
    6.3689    3.0105    0.0000 N   0  0  0  0  0  0  0  0  0  0  0  0
   -1.2064   10.6676    0.0000 C   0  0  0  0  0  0  0  0  0  0  0  0
   -1.2064    9.1676    0.0000 C   0  0  0  0  0  0  0  0  0  0  0  0
   -2.6330    8.7041    0.0000 N   0  0  0  0  0  0  0  0  0  0  0  0
   -3.5147    9.9176    0.0000 N   0  0  0  0  0  0  0  0  0  0  0  0
   -2.6330   11.1312    0.0000 C   0  0  0  0  0  0  0  0  0  0  0  0
    1.5000   -7.7942    0.0000 O   0  0  0  0  0  0  0  0  0  0  0  0
    0.7500   -6.4952    0.0000 C   0  0  0  0  0  0  0  0  0  0  0  0
    1.5000   -5.1962    0.0000 N   0  0  0  0  0  0  0  0  0  0  0  0
    0.7500   -3.8971    0.0000 C   0  0  0  0  0  0  0  0  0  0  0  0
    1.5000   -2.5981    0.0000 N   0  0  0  0  0  0  0  0  0  0  0  0
    0.7500   -1.2990    0.0000 C   0  0  0  0  0  0  0  0  0  0  0  0
    1.5000    0.0000    0.0000 C   0  0  0  0  0  0  0  0  0  0  0  0
    0.7500    1.2990    0.0000 C   0  0  0  0  0  0  0  0  0  0  0  0
   -0.7500    1.2990    0.0000 C   0  0  0  0  0  0  0  0  0  0  0  0
   -1.5000    0.0000    0.0000 C   0  0  0  0  0  0  0  0  0  0  0  0
   -0.7500   -1.2990    0.0000 C   0  0  0  0  0  0  0  0  0  0  0  0
   -1.5000   -2.5981    0.0000 N   0  0  0  0  0  0  0  0  0  0  0  0
   -0.7500   -3.8971    0.0000 C   0  0  0  0  0  0  0  0  0  0  0  0
   -1.5000   -5.1962    0.0000 C   0  0  0  0  0  0  0  0  0  0  0  0
   -3.0000   -5.1962    0.0000 O   0  0  0  0  0  0  0  0  0  0  0  0
   -0.7500   -6.4952    0.0000 N   0  0  0  0  0  0  0  0  0  0  0  0
   -3.0965   12.5578    0.0000 C   0  0  0  0  0  0  0  0  0  0  0  0
   -4.5637   12.8696    0.0000 N   0  0  0  0  0  0  0  0  0  0  0  0
   -5.0273   14.2962    0.0000 C   0  0  0  0  0  0  0  0  0  0  0  0
   -6.4945   14.6081    0.0000 O   0  0  0  0  0  0  0  0  0  0  0  0
    8.2290    7.8887    0.0000 C   0  0  0  0  0  0  0  0  0  0  0  0
    9.5994    7.2786    0.0000 O   0  0  0  0  0  0  0  0  0  0  0  0
  1  2  2  0
  2  3  1  0
  3  4  2  0
  4  5  1  0
  5  6  2  0
  6  1  1  0
  7  8  1  0
  8  9  1  0
  9 10  1  0
 10 11  1  0
 11 12  1  0
 12  7  1  0
 13 14  1  0
 14 15  1  0
 15 16  1  0
 16 17  1  0
 17 13  1  0
 18 19  1  0
 19 20  1  0
 20 21  2  0
 22 23  2  0
 23 24  1  0
 24 25  2  0
 25 26  1  0
 26 27  2  0
 27 28  1  0
 28 29  1  0
 29 30  2  0
 30 22  1  0
 29 25  1  0
 31 32  1  0
 32 33  2  0
 33 34  1  0
 34 35  1  0
 35 31  2  0
 36 37  2  0
 37 38  1  0
 38 39  2  0
 39 40  1  0
 40 41  1  0
 41 42  2  0
 42 43  1  0
 43 44  2  0
 44 45  1  0
 45 46  2  0
 46 47  1  0
 47 48  2  0
 48 49  1  0
 49 50  2  0
 49 51  1  0
 51 37  1  0
 48 39  1  0
 46 41  1  0
 52 53  1  0
 53 54  1  0
 54 55  2  0
 56 57  2  0
  5  7  1  0
  2 15  1  0
  1 18  1  0
 12 31  1  0
 17 28  1  0
 13 43  1  0
 20 56  1  0
 35 52  1  0
M  END
$$$$

     RDKit          2D

 42 48  0  0  0  0  0  0  0  0999 V2000
    4.9858   -6.2994    0.0000 C   0  0  0  0  0  0  0  0  0  0  0  0
    6.4776   -6.4562    0.0000 C   0  0  0  0  0  0  0  0  0  0  0  0
    7.0877   -5.0859    0.0000 C   0  0  0  0  0  0  0  0  0  0  0  0
    5.9730   -4.0822    0.0000 N   0  0  0  0  0  0  0  0  0  0  0  0
    4.6740   -4.8322    0.0000 C   0  0  0  0  0  0  0  0  0  0  0  0
    3.9821   -7.4141    0.0000 C   0  0  0  0  0  0  0  0  0  0  0  0
    4.4457   -8.8407    0.0000 C   0  0  0  0  0  0  0  0  0  0  0  0
    0.8899   -3.9684    0.0000 C   0  0  0  0  0  0  0  0  0  0  0  0
    2.0046   -4.9721    0.0000 C   0  0  0  0  0  0  0  0  0  0  0  0
    3.3037   -4.2221    0.0000 C   0  0  0  0  0  0  0  0  0  0  0  0
    2.9918   -2.7549    0.0000 N   0  0  0  0  0  0  0  0  0  0  0  0
    1.5000   -2.5981    0.0000 C   0  0  0  0  0  0  0  0  0  0  0  0
   -1.5000    0.0000    0.0000 C   0  0  0  0  0  0  0  0  0  0  0  0
   -0.7500   -1.2990    0.0000 C   0  0  0  0  0  0  0  0  0  0  0  0
    0.7500   -1.2990    0.0000 C   0  0  0  0  0  0  0  0  0  0  0  0
    1.5000    0.0000    0.0000 N   0  0  0  0  0  0  0  0  0  0  0  0
    0.7500    1.2990    0.0000 C   0  0  0  0  0  0  0  0  0  0  0  0
   -0.7500    1.2990    0.0000 C   0  0  0  0  0  0  0  0  0  0  0  0
    8.5549   -4.7740    0.0000 C   0  0  0  0  0  0  0  0  0  0  0  0
    9.1651   -3.4037    0.0000 C   0  0  0  0  0  0  0  0  0  0  0  0
   10.6568   -3.5605    0.0000 C   0  0  0  0  0  0  0  0  0  0  0  0
   10.9687   -5.0277    0.0000 N   0  0  0  0  0  0  0  0  0  0  0  0
    9.6697   -5.7777    0.0000 C   0  0  0  0  0  0  0  0  0  0  0  0
   13.1278   -2.7576    0.0000 C   0  0  0  0  0  0  0  0  0  0  0  0
   11.6605   -2.4458    0.0000 C   0  0  0  0  0  0  0  0  0  0  0  0
   -5.2500    1.2990    0.0000 C   0  0  0  0  0  0  0  0  0  0  0  0
   -3.7500    1.2990    0.0000 C   0  0  0  0  0  0  0  0  0  0  0  0
   -3.0000    0.0000    0.0000 N   0  0  0  0  0  0  0  0  0  0  0  0
   -3.7500   -1.2990    0.0000 C   0  0  0  0  0  0  0  0  0  0  0  0
   -5.2500   -1.2990    0.0000 C   0  0  0  0  0  0  0  0  0  0  0  0
   -6.0000    0.0000    0.0000 N   0  0  0  0  0  0  0  0  0  0  0  0
   -1.5000   -2.5981    0.0000 C   0  0  0  0  0  0  0  0  0  0  0  0
   -0.8899   -3.9684    0.0000 C   0  0  0  0  0  0  0  0  0  0  0  0
   -2.0046   -4.9721    0.0000 C   0  0  0  0  0  0  0  0  0  0  0  0
   -3.3037   -4.2221    0.0000 N   0  0  0  0  0  0  0  0  0  0  0  0
   -2.9918   -2.7549    0.0000 C   0  0  0  0  0  0  0  0  0  0  0  0
    9.5129   -7.2695    0.0000 C   0  0  0  0  0  0  0  0  0  0  0  0
    8.1426   -7.8796    0.0000 C   0  0  0  0  0  0  0  0  0  0  0  0
    7.9858   -9.3714    0.0000 C   0  0  0  0  0  0  0  0  0  0  0  0
    9.1993  -10.2531    0.0000 O   0  0  0  0  0  0  0  0  0  0  0  0
   10.5696   -9.6430    0.0000 C   0  0  0  0  0  0  0  0  0  0  0  0
   10.7264   -8.1512    0.0000 C   0  0  0  0  0  0  0  0  0  0  0  0
  1  2  1  0
  2  3  1  0
  3  4  1  0
  4  5  1  0
  5  1  1  0
  6  7  2  0
  8  9  1  0
  9 10  1  0
 10 11  1  0
 11 12  1  0
 12  8  1  0
 13 14  2  0
 14 15  1  0
 15 16  2  0
 16 17  1  0
 17 18  2  0
 18 13  1  0
 19 20  1  0
 20 21  1  0
 21 22  1  0
 22 23  1  0
 23 19  1  0
 24 25  1  0
 26 27  1  0
 27 28  1  0
 28 29  1  0
 29 30  1  0
 30 31  1  0
 31 26  1  0
 32 33  1  0
 33 34  1  0
 34 35  1  0
 35 36  1  0
 36 32  1  0
 37 38  1  0
 38 39  1  0
 39 40  1  0
 40 41  1  0
 41 42  1  0
 42 37  1  0
  1  6  1  0
  5 10  1  0
  3 19  1  0
 12 15  1  0
 13 28  1  0
 14 32  1  0
 21 25  1  0
 23 37  1  0
M  END
$$$$

     RDKit          2D

 43 48  0  0  0  0  0  0  0  0999 V2000
   10.5992   13.6492    0.0000 C   0  0  0  0  0  0  0  0  0  0  0  0
    9.3001   12.8992    0.0000 C   0  0  0  0  0  0  0  0  0  0  0  0
    8.0011   13.6492    0.0000 N   0  0  0  0  0  0  0  0  0  0  0  0
    8.0011   15.1492    0.0000 C   0  0  0  0  0  0  0  0  0  0  0  0
    9.3001   15.8992    0.0000 C   0  0  0  0  0  0  0  0  0  0  0  0
   10.5992   15.1492    0.0000 N   0  0  0  0  0  0  0  0  0  0  0  0
   11.8982   15.8992    0.0000 Cl  0  0  0  0  0  0  0  0  0  0  0  0
    6.5453   11.4074    0.0000 C   0  0  0  0  0  0  0  0  0  0  0  0
    5.0780   11.0956    0.0000 C   0  0  0  0  0  0  0  0  0  0  0  0
    4.3280   12.3946    0.0000 C   0  0  0  0  0  0  0  0  0  0  0  0
    5.3317   13.5093    0.0000 N   0  0  0  0  0  0  0  0  0  0  0  0
    6.7021   12.8992    0.0000 C   0  0  0  0  0  0  0  0  0  0  0  0
    7.6600   10.4037    0.0000 C   0  0  0  0  0  0  0  0  0  0  0  0
    7.3481    8.9365    0.0000 C   0  0  0  0  0  0  0  0  0  0  0  0
    8.4628    7.9328    0.0000 C   0  0  0  0  0  0  0  0  0  0  0  0
    9.8894    8.3963    0.0000 N   0  0  0  0  0  0  0  0  0  0  0  0
   10.2013    9.8636    0.0000 C   0  0  0  0  0  0  0  0  0  0  0  0
    9.0866   10.8673    0.0000 C   0  0  0  0  0  0  0  0  0  0  0  0
    3.3802    9.0132    0.0000 C   0  0  0  0  0  0  0  0  0  0  0  0
    4.8068    9.4767    0.0000 C   0  0  0  0  0  0  0  0  0  0  0  0
    5.9215    8.4730    0.0000 C   0  0  0  0  0  0  0  0  0  0  0  0
    5.6097    7.0058    0.0000 N   0  0  0  0  0  0  0  0  0  0  0  0
    4.1831    6.5422    0.0000 C   0  0  0  0  0  0  0  0  0  0  0  0
    3.0684    7.5459    0.0000 C   0  0  0  0  0  0  0  0  0  0  0  0
    2.8363   12.5514    0.0000 C   0  0  0  0  0  0  0  0  0  0  0  0
    2.2261   13.9217    0.0000 C   0  0  0  0  0  0  0  0  0  0  0  0
    0.7344   14.0785    0.0000 C   0  0  0  0  0  0  0  0  0  0  0  0
    2.1328    3.1443    0.0000 C   0  0  0  0  0  0  0  0  0  0  0  0
    2.4446    4.6115    0.0000 N   0  0  0  0  0  0  0  0  0  0  0  0
    3.8712    5.0750    0.0000 C   0  0  0  0  0  0  0  0  0  0  0  0
    4.9859    4.0713    0.0000 O   0  0  0  0  0  0  0  0  0  0  0  0
    6.1346   15.9802    0.0000 O   0  0  0  0  0  0  0  0  0  0  0  0
    5.0199   14.9765    0.0000 S   0  0  0  0  0  0  0  0  0  0  0  0
    3.5933   15.4401    0.0000 O   0  0  0  0  0  0  0  0  0  0  0  0
   -1.8351    3.2209    0.0000 C   0  0  0  0  0  0  0  0  0  0  0  0
   -0.4086    3.6844    0.0000 N   0  0  0  0  0  0  0  0  0  0  0  0
    0.7062    2.6807    0.0000 C   0  0  0  0  0  0  0  0  0  0  0  0
    0.3943    1.2135    0.0000 C   0  0  0  0  0  0  0  0  0  0  0  0
    1.2760    0.0000    0.0000 N   0  0  0  0  0  0  0  0  0  0  0  0
    0.3943   -1.2135    0.0000 C   0  0  0  0  0  0  0  0  0  0  0  0
   -1.0323   -0.7500    0.0000 N   0  0  0  0  0  0  0  0  0  0  0  0
   -1.0323    0.7500    0.0000 C   0  0  0  0  0  0  0  0  0  0  0  0
   -2.1470    1.7537    0.0000 N   0  0  0  0  0  0  0  0  0  0  0  0
  1  2  1  0
  2  3  1  0
  3  4  1  0
  4  5  1  0
  5  6  1  0
  6  1  1  0
  8  9  1  0
  9 10  1  0
 10 11  1  0
 11 12  1  0
 12  8  1  0
 13 14  1  0
 14 15  2  0
 15 16  1  0
 16 17  2  0
 17 18  1  0
 18 13  2  0
 19 20  2  0
 20 21  1  0
 21 22  2  0
 22 23  1  0
 23 24  2  0
 24 19  1  0
 25 26  2  3
 26 27  1  0
 28 29  1  0
 29 30  1  0
 30 31  2  0
 32 33  2  0
 33 34  2  0
 35 36  2  0
 36 37  1  0
 37 38  2  0
 38 39  1  0
 39 40  2  0
 40 41  1  0
 41 42  1  0
 42 43  2  0
 43 35  1  0
 42 38  1  0
  6  7  1  0
  3 12  1  0
  8 13  1  0
 10 25  1  0
 11 33  1  0
 14 21  1  0
 23 30  1  0
 28 37  1  0
M  END
$$$$

     RDKit          2D

 46 52  0  0  0  0  0  0  0  0999 V2000
   -0.7500   -1.2990    0.0000 C   0  0  0  0  0  0  0  0  0  0  0  0
    0.7500   -1.2990    0.0000 C   0  0  0  0  0  0  0  0  0  0  0  0
    1.5000    0.0000    0.0000 C   0  0  0  0  0  0  0  0  0  0  0  0
    0.7500    1.2990    0.0000 O   0  0  0  0  0  0  0  0  0  0  0  0
   -0.7500    1.2990    0.0000 C   0  0  0  0  0  0  0  0  0  0  0  0
   -1.5000    0.0000    0.0000 C   0  0  0  0  0  0  0  0  0  0  0  0
   -1.5000   -2.5981    0.0000 C   0  0  0  0  0  0  0  0  0  0  0  0
   -0.8899   -3.9684    0.0000 C   0  0  0  0  0  0  0  0  0  0  0  0
   -2.0046   -4.9721    0.0000 C   0  0  0  0  0  0  0  0  0  0  0  0
   -3.3037   -4.2221    0.0000 N   0  0  0  0  0  0  0  0  0  0  0  0
   -2.9918   -2.7549    0.0000 C   0  0  0  0  0  0  0  0  0  0  0  0
   -0.4775   -7.0740    0.0000 C   0  0  0  0  0  0  0  0  0  0  0  0
   -0.3207   -8.5658    0.0000 C   0  0  0  0  0  0  0  0  0  0  0  0
   -1.5342   -9.4474    0.0000 O   0  0  0  0  0  0  0  0  0  0  0  0
   -2.9046   -8.8373    0.0000 C   0  0  0  0  0  0  0  0  0  0  0  0
   -3.0613   -7.3456    0.0000 C   0  0  0  0  0  0  0  0  0  0  0  0
   -1.8478   -6.4639    0.0000 N   0  0  0  0  0  4  0  0  0  0  0  0
   -6.0029    0.5893    0.0000 C   0  0  0  0  0  0  0  0  0  0  0  0
   -4.5356    0.9012    0.0000 C   0  0  0  0  0  0  0  0  0  0  0  0
   -3.5320   -0.2136    0.0000 C   0  0  0  0  0  0  0  0  0  0  0  0
   -3.9955   -1.6402    0.0000 N   0  0  0  0  0  0  0  0  0  0  0  0
   -5.4627   -1.9520    0.0000 C   0  0  0  0  0  0  0  0  0  0  0  0
   -6.4664   -0.8373    0.0000 C   0  0  0  0  0  0  0  0  0  0  0  0
   -7.2578   -4.5606    0.0000 C   0  0  0  0  0  0  0  0  0  0  0  0
   -5.8875   -3.9505    0.0000 C   0  0  0  0  0  0  0  0  0  0  0  0
   -4.6740   -4.8322    0.0000 N   0  0  0  0  0  0  0  0  0  0  0  0
   -4.8308   -6.3240    0.0000 C   0  0  0  0  0  0  0  0  0  0  0  0
   -6.2011   -6.9341    0.0000 C   0  0  0  0  0  0  0  0  0  0  0  0
   -7.4146   -6.0524    0.0000 N   0  0  0  0  0  0  0  0  0  0  0  0
   -8.7849   -6.6625    0.0000 C   0  0  0  0  0  0  0  0  0  0  0  0
   -9.9984   -5.7808    0.0000 C   0  0  0  0  0  0  0  0  0  0  0  0
  -11.3688   -6.3909    0.0000 C   0  0  0  0  0  0  0  0  0  0  0  0
  -11.5256   -7.8827    0.0000 O   0  0  0  0  0  0  0  0  0  0  0  0
  -10.3120   -8.7644    0.0000 C   0  0  0  0  0  0  0  0  0  0  0  0
   -8.9417   -8.1543    0.0000 C   0  0  0  0  0  0  0  0  0  0  0  0
    3.0000    0.0000    0.0000 N   0  0  0  0  0  0  0  0  0  0  0  0
    3.7500    1.2990    0.0000 C   0  0  0  0  0  0  0  0  0  0  0  0
    5.2500    1.2990    0.0000 O   0  0  0  0  0  0  0  0  0  0  0  0
    0.7500   -3.8971    0.0000 C   0  0  0  0  0  0  0  0  0  0  0  0
    1.5000   -2.5981    0.0000 C   0  0  0  0  0  0  0  0  0  0  0  0
    3.0000   -2.5981    0.0000 C   0  0  0  0  0  0  0  0  0  0  0  0
    3.7500   -3.8971    0.0000 O   0  0  0  0  0  0  0  0  0  0  0  0
    3.0000   -5.1962    0.0000 C   0  0  0  0  0  0  0  0  0  0  0  0
    1.5000   -5.1962    0.0000 C   0  0  0  0  0  0  0  0  0  0  0  0
    5.2500   -1.2990    0.0000 C   0  0  0  0  0  0  0  0  0  0  0  0
    3.7500   -1.2990    0.0000 S   0  0  0  0  0  3  0  0  0  0  0  0
  1  2  1  0
  2  3  1  0
  3  4  1  0
  4  5  1  0
  5  6  1  0
  6  1  1  0
  7  8  1  0
  8  9  1  0
  9 10  1  0
 10 11  1  0
 11  7  1  0
 12 13  1  0
 13 14  1  0
 14 15  1  0
 15 16  1  0
 16 17  1  0
 17 12  1  0
 18 19  1  0
 19 20  1  0
 20 21  1  0
 21 22  1  0
 22 23  1  0
 23 18  1  0
 24 25  1  0
 25 26  1  0
 26 27  1  0
 27 28  1  0
 28 29  1  0
 29 24  1  0
 30 31  1  0
 31 32  1  0
 32 33  1  0
 33 34  1  0
 34 35  1  0
 35 30  1  0
 36 37  1  0
 37 38  2  0
 39 40  1  0
 40 41  1  0
 41 42  1  0
 42 43  1  0
 43 44  1  0
 44 39  1  0
 45 46  1  0
  1  7  1  0
  3 36  1  0
  2 40  1  0
  9 17  1  0
 11 21  1  0
 10 26  1  0
 29 30  1  0
 41 46  1  0
M  CHG  2  17   1  46   1
M  END
$$$$

     RDKit          2D

 41 46  0  0  0  0  0  0  0  0999 V2000
    6.0000   -5.1962    0.0000 C   0  0  0  0  0  0  0  0  0  0  0  0
    5.2500   -3.8971    0.0000 C   0  0  0  0  0  0  0  0  0  0  0  0
    3.7500   -3.8971    0.0000 C   0  0  0  0  0  0  0  0  0  0  0  0
    3.0000   -2.5981    0.0000 N   0  0  0  0  0  0  0  0  0  0  0  0
    1.5000   -2.5981    0.0000 C   0  0  0  0  0  0  0  0  0  0  0  0
    0.7500   -3.8971    0.0000 O   0  0  0  0  0  0  0  0  0  0  0  0
   -0.7500   -1.2990    0.0000 C   0  0  0  0  0  0  0  0  0  0  0  0
    0.7500   -1.2990    0.0000 C   0  0  0  0  0  0  0  0  0  0  0  0
    1.5000    0.0000    0.0000 C   0  0  0  0  0  0  0  0  0  0  0  0
    0.7500    1.2990    0.0000 O   0  0  0  0  0  0  0  0  0  0  0  0
   -0.7500    1.2990    0.0000 C   0  0  0  0  0  0  0  0  0  0  0  0
   -1.5000    0.0000    0.0000 C   0  0  0  0  0  0  0  0  0  0  0  0
   -1.5000    2.5981    0.0000 C   0  0  0  0  0  0  0  0  0  0  0  0
   -0.7500    3.8971    0.0000 C   0  0  0  0  0  0  0  0  0  0  0  0
   -3.0000    5.1962    0.0000 C   0  0  0  0  0  0  0  0  0  0  0  0
   -3.7500    6.4952    0.0000 C   0  0  0  0  0  0  0  0  0  0  0  0
   -3.0000    7.7942    0.0000 N   0  0  0  0  0  0  0  0  0  0  0  0
   -1.5000    7.7942    0.0000 C   0  0  0  0  0  0  0  0  0  0  0  0
   -0.7500    6.4952    0.0000 C   0  0  0  0  0  0  0  0  0  0  0  0
   -1.5000    5.1962    0.0000 N   0  0  0  0  0  0  0  0  0  0  0  0
    9.8083   -5.9462    0.0000 C   0  0  0  0  0  0  0  0  0  0  0  0
    9.8083   -4.4462    0.0000 C   0  0  0  0  0  0  0  0  0  0  0  0
    8.3817   -3.9826    0.0000 C   0  0  0  0  0  0  0  0  0  0  0  0
    7.5000   -5.1962    0.0000 N   0  0  0  0  0  0  0  0  0  0  0  0
    8.3817   -6.4097    0.0000 C   0  0  0  0  0  0  0  0  0  0  0  0
   -3.3037   -4.2221    0.0000 C   0  0  0  0  0  0  0  0  0  0  0  0
   -2.9918   -2.7549    0.0000 C   0  0  0  0  0  0  0  0  0  0  0  0
   -1.5000   -2.5981    0.0000 C   0  0  0  0  0  0  0  0  0  0  0  0
   -0.8899   -3.9684    0.0000 N   0  0  0  0  0  0  0  0  0  0  0  0
   -2.0046   -4.9721    0.0000 C   0  0  0  0  0  0  0  0  0  0  0  0
   -4.6740   -4.8322    0.0000 C   0  0  0  0  0  0  0  0  0  0  0  0
   -4.9858   -6.2994    0.0000 C   0  0  0  0  0  0  0  0  0  0  0  0
   -6.4776   -6.4562    0.0000 C   0  0  0  0  0  0  0  0  0  0  0  0
   -7.0877   -5.0859    0.0000 N   0  0  0  0  0  0  0  0  0  0  0  0
   -5.9730   -4.0822    0.0000 C   0  0  0  0  0  0  0  0  0  0  0  0
   -3.0000    0.0000    0.0000 C   0  0  0  0  0  0  0  0  0  0  0  0
   -3.7500    1.2990    0.0000 C   0  0  0  0  0  0  0  0  0  0  0  0
   -5.2500    1.2990    0.0000 C   0  0  0  0  0  0  0  0  0  0  0  0
   -6.0000    0.0000    0.0000 O   0  0  0  0  0  0  0  0  0  0  0  0
   -5.2500   -1.2990    0.0000 C   0  0  0  0  0  0  0  0  0  0  0  0
   -3.7500   -1.2990    0.0000 C   0  0  0  0  0  0  0  0  0  0  0  0
  1  2  2  3
  3  4  1  0
  4  5  1  0
  5  6  2  0
  7  8  1  0
  8  9  1  0
  9 10  1  0
 10 11  1  0
 11 12  1  0
 12  7  1  0
 13 14  2  3
 15 16  1  0
 16 17  1  0
 17 18  1  0
 18 19  1  0
 19 20  1  0
 20 15  1  0
 21 22  1  0
 22 23  1  0
 23 24  1  0
 24 25  1  0
 25 21  1  0
 26 27  1  0
 27 28  1  0
 28 29  1  0
 29 30  1  0
 30 26  1  0
 31 32  1  0
 32 33  1  0
 33 34  1  0
 34 35  1  0
 35 31  1  0
 36 37  1  0
 37 38  1  0
 38 39  1  0
 39 40  1  0
 40 41  1  0
 41 36  1  0
  2  3  1  0
  1 24  1  0
  5  8  1  0
 11 13  1  0
  7 28  1  0
 12 36  1  0
 14 20  1  0
 26 31  1  0
M  END
$$$$

     RDKit          2D

 37 41  0  0  0  0  0  0  0  0999 V2000
    5.2500    1.2990    0.0000 C   0  0  0  0  0  0  0  0  0  0  0  0
    3.7500    1.2990    0.0000 N   0  0  0  0  0  0  0  0  0  0  0  0
    3.0000    0.0000    0.0000 C   0  0  0  0  0  0  0  0  0  0  0  0
    4.0420   -1.0790    0.0000 O   0  0  0  0  0  0  0  0  0  0  0  0
    6.0000    2.5981    0.0000 C   0  0  0  0  0  0  0  0  0  0  0  0
    6.7500    3.8971    0.0000 N   0  0  0  0  0  0  0  0  0  0  0  0
   -0.7500   -1.2990    0.0000 C   0  0  0  0  0  0  0  0  0  0  0  0
    0.7500   -1.2990    0.0000 C   0  0  0  0  0  0  0  0  0  0  0  0
    1.5000    0.0000    0.0000 C   0  0  0  0  0  0  0  0  0  0  0  0
    0.7500    1.2990    0.0000 O   0  0  0  0  0  0  0  0  0  0  0  0
   -0.7500    1.2990    0.0000 C   0  0  0  0  0  0  0  0  0  0  0  0
   -1.5000    0.0000    0.0000 C   0  0  0  0  0  0  0  0  0  0  0  0
   -1.5000    2.5981    0.0000 O   0  0  0  0  0  0  0  0  0  0  0  0
   -5.3083   -0.7500    0.0000 C   0  0  0  0  0  0  0  0  0  0  0  0
   -3.8817   -1.2135    0.0000 C   0  0  0  0  0  0  0  0  0  0  0  0
   -3.0000    0.0000    0.0000 C   0  0  0  0  0  0  0  0  0  0  0  0
   -3.8817    1.2135    0.0000 O   0  0  0  0  0  0  0  0  0  0  0  0
   -5.3083    0.7500    0.0000 C   0  0  0  0  0  0  0  0  0  0  0  0
    1.5000   -2.5981    0.0000 C   0  0  0  0  0  0  0  0  0  0  0  0
    0.8899   -3.9684    0.0000 C   0  0  0  0  0  0  0  0  0  0  0  0
    2.0046   -4.9721    0.0000 C   0  0  0  0  0  0  0  0  0  0  0  0
    3.3037   -4.2221    0.0000 N   0  0  0  0  0  0  0  0  0  0  0  0
    2.9918   -2.7549    0.0000 C   0  0  0  0  0  0  0  0  0  0  0  0
    3.0613   -7.3456    0.0000 C   0  0  0  0  0  0  0  0  0  0  0  0
    1.8478   -6.4639    0.0000 C   0  0  0  0  0  0  0  0  0  0  0  0
    3.5320   -0.2136    0.0000 C   0  0  0  0  0  0  0  0  0  0  0  0
    4.5356    0.9012    0.0000 C   0  0  0  0  0  0  0  0  0  0  0  0
    6.0029    0.5893    0.0000 O   0  0  0  0  0  0  0  0  0  0  0  0
    6.4664   -0.8373    0.0000 C   0  0  0  0  0  0  0  0  0  0  0  0
    5.4627   -1.9520    0.0000 C   0  0  0  0  0  0  0  0  0  0  0  0
    3.9955   -1.6402    0.0000 N   0  0  0  0  0  0  0  0  0  0  0  0
   -3.7500   -3.8971    0.0000 C   0  0  0  0  0  0  0  0  0  0  0  0
   -3.0000   -2.5981    0.0000 C   0  0  0  0  0  0  0  0  0  0  0  0
   -1.5000   -2.5981    0.0000 C   0  0  0  0  0  0  0  0  0  0  0  0
   -0.7500   -3.8971    0.0000 N   0  0  0  0  0  0  0  0  0  0  0  0
   -1.5000   -5.1962    0.0000 C   0  0  0  0  0  0  0  0  0  0  0  0
   -3.0000   -5.1962    0.0000 C   0  0  0  0  0  0  0  0  0  0  0  0
  1  2  1  0
  2  3  1  0
  3  4  2  0
  5  6  3  0
  7  8  1  0
  8  9  1  0
  9 10  1  0
 10 11  1  0
 11 12  1  0
 12  7  1  0
 14 15  1  0
 15 16  1  0
 16 17  1  0
 17 18  1  0
 18 14  1  0
 19 20  1  0
 20 21  1  0
 21 22  1  0
 22 23  1  0
 23 19  1  0
 24 25  2  0
 26 27  1  0
 27 28  1  0
 28 29  1  0
 29 30  1  0
 30 31  1  0
 31 26  1  0
 32 33  2  0
 33 34  1  0
 34 35  2  0
 35 36  1  0
 36 37  2  0
 37 32  1  0
  1  5  1  0
  3  9  1  0
 11 13  1  0
 12 16  1  0
  8 19  1  0
  7 34  1  0
 21 25  1  0
 23 31  1  0
M  END
$$$$

     RDKit          2D

 42 46  0  0  0  0  0  0  0  0999 V2000
   -5.8875   -3.9505    0.0000 C   0  0  0  0  0  0  0  0  0  0  0  0
   -4.6740   -4.8322    0.0000 S   0  0  0  0  0  3  0  0  0  0  0  0
   -3.3037   -4.2221    0.0000 C   0  0  0  0  0  0  0  0  0  0  0  0
   -2.0046   -4.9721    0.0000 C   0  0  0  0  0  0  0  0  0  0  0  0
   -0.8899   -3.9684    0.0000 C   0  0  0  0  0  0  0  0  0  0  0  0
   -1.5000   -2.5981    0.0000 N   0  0  0  0  0  0  0  0  0  0  0  0
   -2.9918   -2.7549    0.0000 C   0  0  0  0  0  0  0  0  0  0  0  0
    1.5000    0.0000    0.0000 C   0  0  0  0  0  0  0  0  0  0  0  0
    0.7500   -1.2990    0.0000 C   0  0  0  0  0  0  0  0  0  0  0  0
   -0.7500   -1.2990    0.0000 C   0  0  0  0  0  0  0  0  0  0  0  0
   -1.5000    0.0000    0.0000 O   0  0  0  0  0  0  0  0  0  0  0  0
   -0.7500    1.2990    0.0000 C   0  0  0  0  0  0  0  0  0  0  0  0
    0.7500    1.2990    0.0000 C   0  0  0  0  0  0  0  0  0  0  0  0
    2.7427   -2.0706    0.0000 C   0  0  0  0  0  0  0  0  0  0  0  0
    1.5000   -2.5981    0.0000 C   0  0  0  0  0  0  0  0  0  0  0  0
    0.2010   -3.3481    0.0000 C   0  0  0  0  0  0  0  0  0  0  0  0
    2.2500   -3.8971    0.0000 C   0  0  0  0  0  0  0  0  0  0  0  0
   -4.5356    0.9012    0.0000 C   0  0  0  0  0  0  0  0  0  0  0  0
   -3.5320   -0.2136    0.0000 C   0  0  0  0  0  0  0  0  0  0  0  0
   -3.9955   -1.6402    0.0000 C   0  0  0  0  0  0  0  0  0  0  0  0
   -5.4627   -1.9520    0.0000 N   0  0  0  0  0  0  0  0  0  0  0  0
   -6.4664   -0.8373    0.0000 C   0  0  0  0  0  0  0  0  0  0  0  0
   -6.0029    0.5893    0.0000 C   0  0  0  0  0  0  0  0  0  0  0  0
    3.0000    1.5000    0.0000 C   0  0  0  0  0  0  0  0  0  0  0  0
    3.0000    0.0000    0.0000 C   0  0  0  0  0  0  0  0  0  0  0  0
    3.1646   -1.3399    0.0000 C   0  0  0  0  0  0  0  0  0  0  0  0
    4.5000    0.0000    0.0000 C   0  0  0  0  0  0  0  0  0  0  0  0
   -2.0046    4.9721    0.0000 C   0  0  0  0  0  0  0  0  0  0  0  0
   -0.8899    3.9684    0.0000 C   0  0  0  0  0  0  0  0  0  0  0  0
   -1.5000    2.5981    0.0000 C   0  0  0  0  0  0  0  0  0  0  0  0
   -2.9918    2.7549    0.0000 N   0  0  0  0  0  0  0  0  0  0  0  0
   -3.3037    4.2221    0.0000 C   0  0  0  0  0  0  0  0  0  0  0  0
    0.5773   -4.2803    0.0000 C   0  0  0  0  0  0  0  0  0  0  0  0
    1.0409   -5.7068    0.0000 N   0  0  0  0  0  0  0  0  0  0  0  0
    2.5081   -6.0187    0.0000 C   0  0  0  0  0  0  0  0  0  0  0  0
    2.9716   -7.4453    0.0000 O   0  0  0  0  0  0  0  0  0  0  0  0
   -0.4775    7.0740    0.0000 C   0  0  0  0  0  0  0  0  0  0  0  0
   -1.8478    6.4639    0.0000 C   0  0  0  0  0  0  0  0  0  0  0  0
   -3.0613    7.3456    0.0000 C   0  0  0  0  0  0  0  0  0  0  0  0
   -2.9046    8.8373    0.0000 O   0  0  0  0  0  0  0  0  0  0  0  0
   -1.5342    9.4474    0.0000 C   0  0  0  0  0  0  0  0  0  0  0  0
   -0.3207    8.5658    0.0000 C   0  0  0  0  0  0  0  0  0  0  0  0
  1  2  1  0
  3  4  1  0
  4  5  1  0
  5  6  1  0
  6  7  1  0
  7  3  1  0
  8  9  1  0
  9 10  1  0
 10 11  1  0
 11 12  1  0
 12 13  1  0
 13  8  1  0
 14 15  1  0
 15 16  1  0
 15 17  1  0
 18 19  2  0
 19 20  1  0
 20 21  2  0
 21 22  1  0
 22 23  2  0
 23 18  1  0
 24 25  1  0
 25 26  1  0
 25 27  1  0
 28 29  1  0
 29 30  1  0
 30 31  1  0
 31 32  1  0
 32 28  1  0
 33 34  1  0
 34 35  1  0
 35 36  2  0
 37 38  1  0
 38 39  1  0
 39 40  1  0
 40 41  1  0
 41 42  1  0
 42 37  1  0
  2  3  1  0
  6 10  1  0
  7 20  1  0
  5 33  1  0
  9 15  1  0
  8 25  1  0
 12 30  1  0
 28 38  1  0
M  CHG  1   2   1
M  END
$$$$

     RDKit          2D

 47 54  0  0  0  0  0  0  0  0999 V2000
    3.7701    2.1590    0.0000 C   0  0  0  0  0  0  0  0  0  0  0  0
    4.0819    0.6918    0.0000 C   0  0  0  0  0  0  0  0  0  0  0  0
    5.5085    0.2283    0.0000 C   0  0  0  0  0  0  0  0  0  0  0  0
    6.6232    1.2320    0.0000 O   0  0  0  0  0  0  0  0  0  0  0  0
    6.3114    2.6992    0.0000 C   0  0  0  0  0  0  0  0  0  0  0  0
    4.8848    3.1627    0.0000 C   0  0  0  0  0  0  0  0  0  0  0  0
   -0.7500    1.2990    0.0000 C   0  0  0  0  0  0  0  0  0  0  0  0
   -1.5000    0.0000    0.0000 N   0  0  0  0  0  0  0  0  0  0  0  0
   -0.7500   -1.2990    0.0000 C   0  0  0  0  0  0  0  0  0  0  0  0
    0.7500   -1.2990    0.0000 C   0  0  0  0  0  0  0  0  0  0  0  0
    1.7537   -2.4138    0.0000 N   0  0  0  0  0  0  0  0  0  0  0  0
    3.1240   -1.8037    0.0000 C   0  0  0  0  0  0  0  0  0  0  0  0
    2.9672   -0.3119    0.0000 N   0  0  0  0  0  0  0  0  0  0  0  0
    1.5000   -0.0000    0.0000 C   0  0  0  0  0  0  0  0  0  0  0  0
    0.7500    1.2990    0.0000 N   0  0  0  0  0  0  0  0  0  0  0  0
    2.3435    2.6226    0.0000 C   0  0  0  0  0  0  0  0  0  0  0  0
   -2.0046   -4.9721    0.0000 C   0  0  0  0  0  0  0  0  0  0  0  0
   -3.3037   -4.2221    0.0000 C   0  0  0  0  0  0  0  0  0  0  0  0
   -2.9918   -2.7549    0.0000 C   0  0  0  0  0  0  0  0  0  0  0  0
   -1.5000   -2.5981    0.0000 N   0  0  0  0  0  0  0  0  0  0  0  0
   -0.8899   -3.9684    0.0000 C   0  0  0  0  0  0  0  0  0  0  0  0
    8.5408    4.7066    0.0000 O   0  0  0  0  0  0  0  0  0  0  0  0
    7.4261    3.7029    0.0000 P   0  0  0  0  0  5  0  0  0  0  0  0
    6.4224    4.8176    0.0000 O   0  0  0  0  0  1  0  0  0  0  0  0
    8.4298    2.5882    0.0000 O   0  0  0  0  0  0  0  0  0  0  0  0
   -6.4664   -0.8373    0.0000 C   0  0  0  0  0  0  0  0  0  0  0  0
   -5.4627   -1.9520    0.0000 C   0  0  0  0  0  0  0  0  0  0  0  0
   -3.9955   -1.6402    0.0000 N   0  0  0  0  0  0  0  0  0  0  0  0
   -3.5320   -0.2136    0.0000 C   0  0  0  0  0  0  0  0  0  0  0  0
   -4.5356    0.9012    0.0000 C   0  0  0  0  0  0  0  0  0  0  0  0
   -6.0029    0.5893    0.0000 N   0  0  0  0  0  0  0  0  0  0  0  0
   -2.9046   -8.8373    0.0000 C   0  0  0  0  0  0  0  0  0  0  0  0
   -3.0613   -7.3456    0.0000 C   0  0  0  0  0  0  0  0  0  0  0  0
   -1.8478   -6.4639    0.0000 C   0  0  0  0  0  0  0  0  0  0  0  0
   -0.4775   -7.0740    0.0000 O   0  0  0  0  0  0  0  0  0  0  0  0
   -0.3207   -8.5658    0.0000 C   0  0  0  0  0  0  0  0  0  0  0  0
   -1.5342   -9.4474    0.0000 C   0  0  0  0  0  0  0  0  0  0  0  0
    2.9911   -4.0266    0.0000 C   0  0  0  0  0  0  0  0  0  0  0  0
    1.6920   -3.2766    0.0000 C   0  0  0  0  0  0  0  0  0  0  0  0
    0.5773   -4.2803    0.0000 C   0  0  0  0  0  0  0  0  0  0  0  0
    1.1874   -5.6506    0.0000 S   0  0  0  0  0  0  0  0  0  0  0  0
    2.6792   -5.4938    0.0000 C   0  0  0  0  0  0  0  0  0  0  0  0
    1.3615  -10.6431    0.0000 C   0  0  0  0  0  0  0  0  0  0  0  0
    2.8533  -10.7999    0.0000 C   0  0  0  0  0  0  0  0  0  0  0  0
    3.4634   -9.4296    0.0000 C   0  0  0  0  0  0  0  0  0  0  0  0
    2.3486   -8.4259    0.0000 N   0  0  0  0  0  0  0  0  0  0  0  0
    1.0496   -9.1759    0.0000 C   0  0  0  0  0  0  0  0  0  0  0  0
  1  2  1  0
  2  3  1  0
  3  4  1  0
  4  5  1  0
  5  6  1  0
  6  1  1  0
  7  8  2  0
  8  9  1  0
  9 10  2  0
 10 11  1  0
 11 12  2  0
 12 13  1  0
 13 14  1  0
 14 15  2  0
 15  7  1  0
 14 10  1  0
 17 18  1  0
 18 19  1  0
 19 20  1  0
 20 21  1  0
 21 17  1  0
 22 23  2  0
 23 24  1  0
 23 25  1  0
 26 27  1  0
 27 28  1  0
 28 29  1  0
 29 30  1  0
 30 31  1  0
 31 26  1  0
 32 33  1  0
 33 34  1  0
 34 35  1  0
 35 36  1  0
 36 37  1  0
 37 32  1  0
 38 39  1  0
 39 40  2  0
 40 41  1  0
 41 42  1  0
 42 38  2  0
 43 44  1  0
 44 45  1  0
 45 46  1  0
 46 47  1  0
 47 43  1  0
  2 13  1  0
  1 16  1  0
  5 23  1  0
  9 20  1  0
 19 28  1  0
 17 34  1  0
 21 40  1  0
 36 47  1  0
M  CHG  1  24  -1
M  END
$$$$

     RDKit          2D

 50 57  0  0  0  0  0  0  0  0999 V2000
   -5.7079    1.5321    0.0000 C   0  0  0  0  0  0  0  0  0  0  0  0
   -5.5511    0.0403    0.0000 N   0  0  0  0  0  0  0  0  0  0  0  0
   -4.1807   -0.5698    0.0000 C   0  0  0  0  0  0  0  0  0  0  0  0
   -2.9672    0.3119    0.0000 C   0  0  0  0  0  0  0  0  0  0  0  0
   -1.5000    0.0000    0.0000 N   0  0  0  0  0  0  0  0  0  0  0  0
   -0.7500    1.2990    0.0000 C   0  0  0  0  0  0  0  0  0  0  0  0
   -1.7537    2.4138    0.0000 N   0  0  0  0  0  0  0  0  0  0  0  0
   -3.1240    1.8037    0.0000 C   0  0  0  0  0  0  0  0  0  0  0  0
   -4.4943    2.4138    0.0000 N   0  0  0  0  0  0  0  0  0  0  0  0
    0.2966    5.8117    0.0000 C   0  0  0  0  0  0  0  0  0  0  0  0
   -0.8181    6.8154    0.0000 C   0  0  0  0  0  0  0  0  0  0  0  0
   -2.2447    6.3519    0.0000 C   0  0  0  0  0  0  0  0  0  0  0  0
   -2.5565    4.8847    0.0000 O   0  0  0  0  0  0  0  0  0  0  0  0
   -1.4418    3.8810    0.0000 C   0  0  0  0  0  0  0  0  0  0  0  0
   -0.0152    4.3445    0.0000 C   0  0  0  0  0  0  0  0  0  0  0  0
    1.7232    6.2752    0.0000 C   0  0  0  0  0  0  0  0  0  0  0  0
    2.0351    7.7425    0.0000 C   0  0  0  0  0  0  0  0  0  0  0  0
    3.4617    8.2060    0.0000 C   0  0  0  0  0  0  0  0  0  0  0  0
    4.5764    7.2023    0.0000 N   0  0  0  0  0  0  0  0  0  0  0  0
    4.2645    5.7351    0.0000 C   0  0  0  0  0  0  0  0  0  0  0  0
    2.8379    5.2716    0.0000 C   0  0  0  0  0  0  0  0  0  0  0  0
   -3.3594    7.3556    0.0000 C   0  0  0  0  0  0  0  0  0  0  0  0
   -4.7860    6.8921    0.0000 N   0  0  0  0  0  0  0  0  0  0  0  0
   -5.9007    7.8958    0.0000 C   0  0  0  0  0  0  0  0  0  0  0  0
   -7.3273    7.4322    0.0000 O   0  0  0  0  0  0  0  0  0  0  0  0
    8.8561    8.5929    0.0000 C   0  0  0  0  0  0  0  0  0  0  0  0
    7.7414    9.5966    0.0000 C   0  0  0  0  0  0  0  0  0  0  0  0
    6.3148    9.1330    0.0000 C   0  0  0  0  0  0  0  0  0  0  0  0
    6.0030    7.6658    0.0000 N   0  0  0  0  0  0  0  0  0  0  0  0
    7.1177    6.6621    0.0000 C   0  0  0  0  0  0  0  0  0  0  0  0
    8.5443    7.1257    0.0000 C   0  0  0  0  0  0  0  0  0  0  0  0
   -4.0240   -2.0616    0.0000 C   0  0  0  0  0  0  0  0  0  0  0  0
   -5.1387   -3.0653    0.0000 C   0  0  0  0  0  0  0  0  0  0  0  0
   -4.5286   -4.4356    0.0000 C   0  0  0  0  0  0  0  0  0  0  0  0
   -3.0368   -4.2788    0.0000 N   0  0  0  0  0  0  0  0  0  0  0  0
   -2.7249   -2.8116    0.0000 C   0  0  0  0  0  0  0  0  0  0  0  0
    0.9204    8.7462    0.0000 C   0  0  0  0  0  0  0  0  0  0  0  0
    0.8679   10.2452    0.0000 O   0  0  0  0  0  0  0  0  0  0  0  0
    1.9023    0.8699    0.0000 C   0  0  0  0  0  0  0  0  0  0  0  0
    0.7876    1.8736    0.0000 C   0  0  0  0  0  0  0  0  0  0  0  0
    1.0995    3.3408    0.0000 C   0  0  0  0  0  0  0  0  0  0  0  0
    2.5261    3.8043    0.0000 O   0  0  0  0  0  0  0  0  0  0  0  0
    3.6408    2.8006    0.0000 C   0  0  0  0  0  0  0  0  0  0  0  0
    3.3289    1.3334    0.0000 C   0  0  0  0  0  0  0  0  0  0  0  0
    0.1175   11.2171    0.0000 C   0  0  0  0  0  0  0  0  0  0  0  0
   -1.3091   10.7536    0.0000 C   0  0  0  0  0  0  0  0  0  0  0  0
   -1.6209    9.2863    0.0000 C   0  0  0  0  0  0  0  0  0  0  0  0
   -0.5062    8.2826    0.0000 N   0  0  0  0  0  0  0  0  0  0  0  0
    0.9204    8.7462    0.0000 C   0  0  0  0  0  0  0  0  0  0  0  0
    1.2322   10.2134    0.0000 C   0  0  0  0  0  0  0  0  0  0  0  0
  1  2  2  0
  2  3  1  0
  3  4  2  0
  4  5  1  0
  5  6  2  0
  6  7  1  0
  7  8  1  0
  8  9  2  0
  9  1  1  0
  8  4  1  0
 10 11  1  0
 11 12  1  0
 12 13  1  0
 13 14  1  0
 14 15  1  0
 15 10  1  0
 16 17  1  0
 17 18  1  0
 18 19  1  0
 19 20  1  0
 20 21  1  0
 21 16  1  0
 22 23  1  0
 23 24  1  0
 24 25  2  0
 26 27  1  0
 27 28  1  0
 28 29  1  0
 29 30  1  0
 30 31  1  0
 31 26  1  0
 32 33  1  0
 33 34  1  0
 34 35  1  0
 35 36  1  0
 36 32  1  0
 37 38  1  0
 39 40  1  0
 40 41  1  0
 41 42  1  0
 42 43  1  0
 43 44  1  0
 44 39  1  0
 45 46  1  0
 46 47  1  0
 47 48  1  0
 48 49  1  0
 49 50  1  0
 50 45  1  0
  7 14  1  0
  3 32  1  0
 10 16  1  0
 12 22  1  0
 15 41  1  0
 11 48  1  0
 19 29  1  0
 17 37  1  0
M  END
$$$$

     RDKit          2D

 36 39  0  0  0  0  0  0  0  0999 V2000
    1.3601   -7.8655    0.0000 C   0  0  0  0  0  0  0  0  0  0  0  0
    0.2454   -8.8692    0.0000 C   0  0  0  0  0  0  0  0  0  0  0  0
   -1.0537   -8.1192    0.0000 C   0  0  0  0  0  0  0  0  0  0  0  0
   -0.7418   -6.6520    0.0000 N   0  0  0  0  0  0  0  0  0  0  0  0
    0.7500   -6.4952    0.0000 C   0  0  0  0  0  0  0  0  0  0  0  0
    4.9292   -9.3909    0.0000 C   0  0  0  0  0  0  0  0  0  0  0  0
    3.4374   -9.5477    0.0000 C   0  0  0  0  0  0  0  0  0  0  0  0
    2.8273   -8.1774    0.0000 C   0  0  0  0  0  0  0  0  0  0  0  0
    3.9420   -7.1737    0.0000 O   0  0  0  0  0  0  0  0  0  0  0  0
    5.2411   -7.9237    0.0000 C   0  0  0  0  0  0  0  0  0  0  0  0
    1.5000   -2.5981    0.0000 C   0  0  0  0  0  0  0  0  0  0  0  0
    0.7500   -3.8971    0.0000 N   0  0  0  0  0  0  0  0  0  0  0  0
    1.5000   -5.1962    0.0000 C   0  0  0  0  0  0  0  0  0  0  0  0
    3.0000   -5.1962    0.0000 O   0  0  0  0  0  0  0  0  0  0  0  0
    0.7500   -1.2990    0.0000 C   0  0  0  0  0  0  0  0  0  0  0  0
    1.5000    0.0000    0.0000 C   0  0  0  0  0  0  0  0  0  0  0  0
    0.7500    1.2990    0.0000 C   0  0  0  0  0  0  0  0  0  0  0  0
   -0.7500    1.2990    0.0000 O   0  0  0  0  0  0  0  0  0  0  0  0
   -1.5000    0.0000    0.0000 C   0  0  0  0  0  0  0  0  0  0  0  0
   -0.7500   -1.2990    0.0000 C   0  0  0  0  0  0  0  0  0  0  0  0
   -3.6375   -7.8476    0.0000 N   0  0  0  0  0  0  0  0  0  0  0  0
   -2.4240   -8.7293    0.0000 C   0  0  0  0  0  0  0  0  0  0  0  0
   -2.5808  -10.2211    0.0000 N   0  0  0  0  0  0  0  0  0  0  0  0
    2.6874  -10.8467    0.0000 C   0  0  0  0  0  0  0  0  0  0  0  0
    3.4374  -12.1458    0.0000 C   0  0  0  0  0  0  0  0  0  0  0  0
    2.6874  -13.4448    0.0000 N   0  0  0  0  0  0  0  0  0  0  0  0
    1.1874  -13.4448    0.0000 C   0  0  0  0  0  0  0  0  0  0  0  0
    0.4374  -12.1458    0.0000 C   0  0  0  0  0  0  0  0  0  0  0  0
    1.1874  -10.8467    0.0000 C   0  0  0  0  0  0  0  0  0  0  0  0
   -3.0000    0.0000    0.0000 C   0  0  0  0  0  0  0  0  0  0  0  0
   -3.7500    1.2990    0.0000 S   0  0  0  0  0  0  0  0  0  0  0  0
    5.9329  -10.5056    0.0000 C   0  0  0  0  0  0  0  0  0  0  0  0
    7.4001  -10.1938    0.0000 C   0  0  0  0  0  0  0  0  0  0  0  0
    9.8710  -10.9966    0.0000 O   0  0  0  0  0  0  0  0  0  0  0  0
    8.4038  -11.3085    0.0000 C   0  0  0  0  0  0  0  0  0  0  0  0
    7.9403  -12.7351    0.0000 O   0  0  0  0  0  0  0  0  0  0  0  0
  1  2  1  0
  2  3  1  0
  3  4  1  0
  4  5  1  0
  5  1  1  0
  6  7  1  0
  7  8  1  0
  8  9  1  0
  9 10  1  0
 10  6  1  0
 11 12  1  0
 12 13  1  0
 13 14  2  0
 15 16  1  0
 16 17  1  0
 17 18  1  0
 18 19  1  0
 19 20  1  0
 20 15  1  0
 21 22  2  0
 22 23  1  0
 24 25  2  0
 25 26  1  0
 26 27  1  0
 27 28  2  0
 28 29  1  0
 29 24  1  0
 30 31  1  0
 32 33  2  3
 34 35  2  0
 35 36  1  0
  1  8  1  0
  5 13  1  0
  3 22  1  0
  7 24  1  0
  6 32  1  0
 11 15  1  0
 19 30  1  0
 33 35  1  0
M  END
$$$$

     RDKit          2D

 54 62  0  0  0  0  0  0  0  0999 V2000
   -6.0000  -10.3923    0.0000 C   0  0  0  0  0  0  0  0  0  0  0  0
   -5.2500   -9.0933    0.0000 C   0  0  0  0  0  0  0  0  0  0  0  0
   -6.0000   -7.7942    0.0000 C   0  0  0  0  0  0  0  0  0  0  0  0
   -5.2500   -6.4952    0.0000 C   0  0  0  0  0  0  0  0  0  0  0  0
   -6.0000   -5.1962    0.0000 C   0  0  0  0  0  0  0  0  0  0  0  0
   -7.5000   -5.1962    0.0000 N   0  0  0  0  0  0  0  0  0  0  0  0
   -8.2500   -6.4952    0.0000 C   0  0  0  0  0  0  0  0  0  0  0  0
   -7.5000   -7.7942    0.0000 C   0  0  0  0  0  0  0  0  0  0  0  0
   -3.4463  -13.3154    0.0000 C   0  0  0  0  0  0  0  0  0  0  0  0
   -3.7582  -11.8481    0.0000 C   0  0  0  0  0  0  0  0  0  0  0  0
   -5.2500  -11.6913    0.0000 C   0  0  0  0  0  0  0  0  0  0  0  0
   -5.8601  -13.0617    0.0000 N   0  0  0  0  0  0  0  0  0  0  0  0
   -4.7454  -14.0654    0.0000 C   0  0  0  0  0  0  0  0  0  0  0  0
    3.0000    0.0000    0.0000 O   0  0  0  0  0  0  0  0  0  0  0  0
    1.5000    0.0000    0.0000 C   0  0  0  0  0  0  0  0  0  0  0  0
    0.7500   -1.2990    0.0000 N   0  0  0  0  0  0  0  0  0  0  0  0
   -0.7500   -1.2990    0.0000 C   0  0  0  0  0  0  0  0  0  0  0  0
   -1.5000   -2.5981    0.0000 N   0  0  0  0  0  0  0  0  0  0  0  0
   -3.0000   -2.5981    0.0000 C   0  0  0  0  0  0  0  0  0  0  0  0
   -3.7500   -3.8971    0.0000 C   0  0  0  0  0  0  0  0  0  0  0  0
   -5.2500   -3.8971    0.0000 C   0  0  0  0  0  0  0  0  0  0  0  0
   -6.0000   -2.5981    0.0000 C   0  0  0  0  0  0  0  0  0  0  0  0
   -5.2500   -1.2990    0.0000 C   0  0  0  0  0  0  0  0  0  0  0  0
   -3.7500   -1.2990    0.0000 C   0  0  0  0  0  0  0  0  0  0  0  0
   -3.0000    0.0000    0.0000 N   0  0  0  0  0  0  0  0  0  0  0  0
   -1.5000    0.0000    0.0000 C   0  0  0  0  0  0  0  0  0  0  0  0
   -0.7500    1.2990    0.0000 C   0  0  0  0  0  0  0  0  0  0  0  0
   -1.5000    2.5981    0.0000 O   0  0  0  0  0  0  0  0  0  0  0  0
    0.7500    1.2990    0.0000 N   0  0  0  0  0  0  0  0  0  0  0  0
   -0.7500   -6.4952    0.0000 C   0  0  0  0  0  0  0  0  0  0  0  0
   -1.5000   -5.1962    0.0000 C   0  0  0  0  0  0  0  0  0  0  0  0
   -0.7500   -3.8971    0.0000 C   0  0  0  0  0  0  0  0  0  0  0  0
    0.7500   -3.8971    0.0000 N   0  0  0  0  0  0  0  0  0  0  0  0
    1.5000   -5.1962    0.0000 C   0  0  0  0  0  0  0  0  0  0  0  0
    0.7500   -6.4952    0.0000 C   0  0  0  0  0  0  0  0  0  0  0  0
   -9.7500   -3.8971    0.0000 C   0  0  0  0  0  0  0  0  0  0  0  0
   -8.2500   -3.8971    0.0000 N   0  0  0  0  0  0  0  0  0  0  0  0
   -7.5000   -2.5981    0.0000 C   0  0  0  0  0  0  0  0  0  0  0  0
   -8.2500   -1.2990    0.0000 C   0  0  0  0  0  0  0  0  0  0  0  0
   -7.7865    0.1275    0.0000 N   0  0  0  0  0  0  0  0  0  0  0  0
   -9.0000    1.0092    0.0000 C   0  0  0  0  0  0  0  0  0  0  0  0
  -10.2135    0.1275    0.0000 N   0  0  0  0  0  0  0  0  0  0  0  0
   -9.7500   -1.2990    0.0000 C   0  0  0  0  0  0  0  0  0  0  0  0
  -10.5000   -2.5981    0.0000 N   0  0  0  0  0  0  0  0  0  0  0  0
  -11.6401    0.5911    0.0000 C   0  0  0  0  0  0  0  0  0  0  0  0
  -12.7548   -0.4126    0.0000 C   0  0  0  0  0  0  0  0  0  0  0  0
  -14.1814    0.0509    0.0000 C   0  0  0  0  0  0  0  0  0  0  0  0
  -14.4933    1.5181    0.0000 N   0  0  0  0  0  0  0  0  0  0  0  0
  -13.3786    2.5218    0.0000 C   0  0  0  0  0  0  0  0  0  0  0  0
  -11.9520    2.0583    0.0000 C   0  0  0  0  0  0  0  0  0  0  0  0
   -9.7500   -6.4952    0.0000 C   0  0  0  0  0  0  0  0  0  0  0  0
  -11.1491    4.5292    0.0000 N   0  0  0  0  0  0  0  0  0  0  0  0
  -10.8373    3.0620    0.0000 C   0  0  0  0  0  0  0  0  0  0  0  0
   -9.4107    2.5985    0.0000 N   0  0  0  0  0  0  0  0  0  0  0  0
  1  2  2  3
  3  4  2  0
  4  5  1  0
  5  6  2  0
  6  7  1  0
  7  8  2  0
  8  3  1  0
  9 10  1  0
 10 11  1  0
 11 12  1  0
 12 13  1  0
 13  9  1  0
 14 15  2  0
 15 16  1  0
 16 17  2  0
 17 18  1  0
 18 19  1  0
 19 20  2  0
 20 21  1  0
 21 22  2  0
 22 23  1  0
 23 24  2  0
 24 25  1  0
 25 26  2  0
 26 27  1  0
 27 28  2  0
 27 29  1  0
 29 15  1  0
 26 17  1  0
 24 19  1  0
 30 31  2  0
 31 32  1  0
 32 33  2  0
 33 34  1  0
 34 35  2  0
 35 30  1  0
 36 37  2  0
 37 38  1  0
 38 39  2  0
 39 40  1  0
 40 41  2  0
 41 42  1  0
 42 43  1  0
 43 44  2  0
 44 36  1  0
 43 39  1  0
 45 46  2  0
 46 47  1  0
 47 48  2  0
 48 49  1  0
 49 50  2  0
 50 45  1  0
 52 53  2  0
 53 54  1  0
  2  3  1  0
  1 11  1  0
  5 21  1  0
  7 51  1  0
 18 32  1  0
 22 38  1  0
 42 45  1  0
 50 53  1  0
M  END
$$$$

     RDKit          2D

 45 51  0  0  0  0  0  0  0  0999 V2000
   -0.7500   -1.2990    0.0000 C   0  0  0  0  0  0  0  0  0  0  0  0
    0.7500   -1.2990    0.0000 C   0  0  0  0  0  0  0  0  0  0  0  0
    1.5000    0.0000    0.0000 C   0  0  0  0  0  0  0  0  0  0  0  0
    0.7500    1.2990    0.0000 O   0  0  0  0  0  0  0  0  0  0  0  0
   -0.7500    1.2990    0.0000 C   0  0  0  0  0  0  0  0  0  0  0  0
   -1.5000    0.0000    0.0000 C   0  0  0  0  0  0  0  0  0  0  0  0
   -1.5000    2.5981    0.0000 C   0  0  0  0  0  0  0  0  0  0  0  0
   -0.7500    3.8971    0.0000 C   0  0  0  0  0  0  0  0  0  0  0  0
   -1.5000    5.1962    0.0000 N   0  0  0  0  0  0  0  0  0  0  0  0
   -3.0000    5.1962    0.0000 C   0  0  0  0  0  0  0  0  0  0  0  0
   -3.7500    3.8971    0.0000 C   0  0  0  0  0  0  0  0  0  0  0  0
   -3.0000    2.5981    0.0000 C   0  0  0  0  0  0  0  0  0  0  0  0
    1.5000    7.7942    0.0000 C   0  0  0  0  0  0  0  0  0  0  0  0
    0.7500    6.4952    0.0000 C   0  0  0  0  0  0  0  0  0  0  0  0
   -0.7500    6.4952    0.0000 C   0  0  0  0  0  0  0  0  0  0  0  0
   -1.5000    7.7942    0.0000 O   0  0  0  0  0  0  0  0  0  0  0  0
   -0.7500    9.0933    0.0000 C   0  0  0  0  0  0  0  0  0  0  0  0
    0.7500    9.0933    0.0000 C   0  0  0  0  0  0  0  0  0  0  0  0
    3.0000   -2.5981    0.0000 N   0  0  0  0  0  0  0  0  0  0  0  0
    1.5000   -2.5981    0.0000 C   0  0  0  0  0  0  0  0  0  0  0  0
    0.7500   -3.8971    0.0000 O   0  0  0  0  0  0  0  0  0  0  0  0
   -2.9918   -2.7549    0.0000 C   0  0  0  0  0  0  0  0  0  0  0  0
   -3.3037   -4.2221    0.0000 C   0  0  0  0  0  0  0  0  0  0  0  0
   -2.0046   -4.9721    0.0000 C   0  0  0  0  0  0  0  0  0  0  0  0
   -0.8899   -3.9684    0.0000 N   0  0  0  0  0  0  0  0  0  0  0  0
   -1.5000   -2.5981    0.0000 C   0  0  0  0  0  0  0  0  0  0  0  0
    3.7500   -3.8971    0.0000 C   0  0  0  0  0  0  0  0  0  0  0  0
    3.0000   -5.1962    0.0000 C   0  0  0  0  0  0  0  0  0  0  0  0
    3.7500   -6.4952    0.0000 C   0  0  0  0  0  0  0  0  0  0  0  0
    5.2500   -6.4952    0.0000 N   0  0  0  0  0  0  0  0  0  0  0  0
    6.0000   -5.1962    0.0000 C   0  0  0  0  0  0  0  0  0  0  0  0
    5.2500   -3.8971    0.0000 C   0  0  0  0  0  0  0  0  0  0  0  0
   -2.3524   -8.8379    0.0000 C   0  0  0  0  0  0  0  0  0  0  0  0
   -0.8606   -8.6811    0.0000 C   0  0  0  0  0  0  0  0  0  0  0  0
   -0.5488   -7.2139    0.0000 C   0  0  0  0  0  0  0  0  0  0  0  0
   -1.8478   -6.4639    0.0000 N   0  0  0  0  0  0  0  0  0  0  0  0
   -2.9625   -7.4676    0.0000 C   0  0  0  0  0  0  0  0  0  0  0  0
    7.5000   -5.1962    0.0000 C   0  0  0  0  0  0  0  0  0  0  0  0
    8.2500   -6.4952    0.0000 C   0  0  0  0  0  0  0  0  0  0  0  0
   12.7500   -6.4952    0.0000 C   0  0  0  0  0  0  0  0  0  0  0  0
   12.0000   -7.7942    0.0000 C   0  0  0  0  0  0  0  0  0  0  0  0
   10.5000   -7.7942    0.0000 C   0  0  0  0  0  0  0  0  0  0  0  0
    9.7500   -6.4952    0.0000 N   0  0  0  0  0  0  0  0  0  0  0  0
   10.5000   -5.1962    0.0000 C   0  0  0  0  0  0  0  0  0  0  0  0
   12.0000   -5.1962    0.0000 C   0  0  0  0  0  0  0  0  0  0  0  0
  1  2  1  0
  2  3  1  0
  3  4  1  0
  4  5  1  0
  5  6  1  0
  6  1  1  0
  7  8  2  0
  8  9  1  0
  9 10  1  0
 10 11  2  0
 11 12  1  0
 12  7  1  0
 13 14  1  0
 14 15  1  0
 15 16  1  0
 16 17  1  0
 17 18  1  0
 18 13  1  0
 19 20  1  0
 20 21  2  0
 22 23  1  0
 23 24  1  0
 24 25  1  0
 25 26  1  0
 26 22  1  0
 27 28  2  0
 28 29  1  0
 29 30  2  0
 30 31  1  0
 31 32  2  0
 32 27  1  0
 33 34  1  0
 34 35  1  0
 35 36  1  0
 36 37  1  0
 37 33  1  0
 38 39  2  3
 40 41  1  0
 41 42  1  0
 42 43  1  0
 43 44  1  0
 44 45  1  0
 45 40  1  0
  5  7  1  0
  2 20  1  0
  1 26  1  0
  9 15  1  0
 19 27  1  0
 24 36  1  0
 31 38  1  0
 39 43  1  0
M  END
$$$$

     RDKit          2D

 49 56  0  0  0  0  0  0  0  0999 V2000
   -4.4445   -6.2523    0.0000 C   0  0  0  0  0  0  0  0  0  0  0  0
   -3.6945   -7.5513    0.0000 C   0  0  0  0  0  0  0  0  0  0  0  0
   -2.2273   -7.2395    0.0000 C   0  0  0  0  0  0  0  0  0  0  0  0
   -2.0705   -5.7477    0.0000 S   0  0  0  0  0  0  0  0  0  0  0  0
   -3.4408   -5.1376    0.0000 C   0  0  0  0  0  0  0  0  0  0  0  0
   -2.9499   -1.1994    0.0000 C   0  0  0  0  0  0  0  0  0  0  0  0
   -4.3764   -0.7359    0.0000 C   0  0  0  0  0  0  0  0  0  0  0  0
   -5.4912   -1.7396    0.0000 C   0  0  0  0  0  0  0  0  0  0  0  0
   -5.1793   -3.2068    0.0000 N   0  0  0  0  0  0  0  0  0  0  0  0
   -3.7527   -3.6703    0.0000 C   0  0  0  0  0  0  0  0  0  0  0  0
   -2.6380   -2.6666    0.0000 C   0  0  0  0  0  0  0  0  0  0  0  0
   -1.8351   -0.1957    0.0000 C   0  0  0  0  0  0  0  0  0  0  0  0
   -0.4086   -0.6593    0.0000 C   0  0  0  0  0  0  0  0  0  0  0  0
    0.7062    0.3444    0.0000 N   0  0  0  0  0  0  0  0  0  0  0  0
    0.3943    1.8117    0.0000 C   0  0  0  0  0  0  0  0  0  0  0  0
   -1.0323    2.2752    0.0000 C   0  0  0  0  0  0  0  0  0  0  0  0
   -2.1470    1.2715    0.0000 C   0  0  0  0  0  0  0  0  0  0  0  0
    4.0963   -1.5457    0.0000 C   0  0  0  0  0  0  0  0  0  0  0  0
    4.5598   -0.1191    0.0000 C   0  0  0  0  0  0  0  0  0  0  0  0
    3.3463    0.7626    0.0000 C   0  0  0  0  0  0  0  0  0  0  0  0
    2.1328   -0.1191    0.0000 N   0  0  0  0  0  0  0  0  0  0  0  0
    2.5963   -1.5457    0.0000 C   0  0  0  0  0  0  0  0  0  0  0  0
    0.0021   -9.2468    0.0000 O   0  0  0  0  0  0  0  0  0  0  0  0
   -1.1126   -8.2431    0.0000 P   0  0  0  0  0  5  0  0  0  0  0  0
   -2.1163   -9.3579    0.0000 O   0  0  0  0  0  1  0  0  0  0  0  0
   -0.1089   -7.1284    0.0000 O   0  0  0  0  0  0  0  0  0  0  0  0
    2.5963    4.5709    0.0000 C   0  0  0  0  0  0  0  0  0  0  0  0
    4.0963    4.5709    0.0000 C   0  0  0  0  0  0  0  0  0  0  0  0
    4.5598    3.1443    0.0000 C   0  0  0  0  0  0  0  0  0  0  0  0
    3.3463    2.2626    0.0000 N   0  0  0  0  0  0  0  0  0  0  0  0
    2.1328    3.1443    0.0000 C   0  0  0  0  0  0  0  0  0  0  0  0
    0.5271   -5.0609    0.0000 C   0  0  0  0  0  0  0  0  0  0  0  0
   -0.8995   -4.5974    0.0000 C   0  0  0  0  0  0  0  0  0  0  0  0
   -1.2114   -3.1302    0.0000 N   0  0  0  0  0  0  0  0  0  0  0  0
   -0.0967   -2.1265    0.0000 C   0  0  0  0  0  0  0  0  0  0  0  0
    1.3299   -2.5900    0.0000 C   0  0  0  0  0  0  0  0  0  0  0  0
    1.6418   -4.0572    0.0000 C   0  0  0  0  0  0  0  0  0  0  0  0
    0.7062    2.6807    0.0000 N   0  0  0  0  0  0  0  0  0  0  0  0
   -0.4086    3.6844    0.0000 C   0  0  0  0  0  0  0  0  0  0  0  0
   -1.8351    3.2209    0.0000 O   0  0  0  0  0  0  0  0  0  0  0  0
    7.7248    0.7500    0.0000 C   0  0  0  0  0  0  0  0  0  0  0  0
    6.2983    1.2135    0.0000 N   0  0  0  0  0  0  0  0  0  0  0  0
    5.9864    2.6807    0.0000 C   0  0  0  0  0  0  0  0  0  0  0  0
    7.1011    3.6844    0.0000 C   0  0  0  0  0  0  0  0  0  0  0  0
    7.1011    5.1844    0.0000 N   0  0  0  0  0  0  0  0  0  0  0  0
    8.5277    5.6480    0.0000 C   0  0  0  0  0  0  0  0  0  0  0  0
    9.4094    4.4344    0.0000 N   0  0  0  0  0  0  0  0  0  0  0  0
    8.5277    3.2209    0.0000 C   0  0  0  0  0  0  0  0  0  0  0  0
    8.8396    1.7537    0.0000 N   0  0  0  0  0  0  0  0  0  0  0  0
  1  2  1  0
  2  3  2  0
  3  4  1  0
  4  5  1  0
  5  1  2  0
  6  7  2  0
  7  8  1  0
  8  9  2  0
  9 10  1  0
 10 11  2  0
 11  6  1  0
 12 13  2  0
 13 14  1  0
 14 15  1  0
 15 16  2  0
 16 17  1  0
 17 12  1  0
 18 19  1  0
 19 20  1  0
 20 21  1  0
 21 22  1  0
 22 18  1  0
 23 24  2  0
 24 25  1  0
 24 26  1  0
 27 28  1  0
 28 29  1  0
 29 30  1  0
 30 31  1  0
 31 27  1  0
 32 33  2  0
 33 34  1  0
 34 35  1  0
 35 36  2  0
 36 37  1  0
 37 32  1  0
 38 39  1  0
 39 40  2  0
 41 42  2  0
 42 43  1  0
 43 44  2  0
 44 45  1  0
 45 46  2  0
 46 47  1  0
 47 48  1  0
 48 49  2  0
 49 41  1  0
 48 44  1  0
  5 10  1  0
  3 24  1  0
  6 12  1  0
 11 34  1  0
 14 21  1  0
 20 30  1  0
 31 38  1  0
 29 43  1  0
M  CHG  1  25  -1
M  END
$$$$

     RDKit          2D

 24 25  0  0  0  0  0  0  0  0999 V2000
    3.7500    3.8971    0.0000 C   0  0  0  0  0  0  0  0  0  0  0  0
    3.0000    2.5981    0.0000 N   0  0  0  0  0  0  0  0  0  0  0  0
    1.5000    2.5981    0.0000 C   0  0  0  0  0  0  0  0  0  0  0  0
    0.7500    3.8971    0.0000 O   0  0  0  0  0  0  0  0  0  0  0  0
    1.5000    0.0000    0.0000 C   0  0  0  0  0  0  0  0  0  0  0  0
    0.7500   -1.2990    0.0000 C   0  0  0  0  0  0  0  0  0  0  0  0
   -0.7500   -1.2990    0.0000 N   0  0  0  0  0  0  0  0  0  0  0  0
   -1.5000    0.0000    0.0000 C   0  0  0  0  0  0  0  0  0  0  0  0
   -0.7500    1.2990    0.0000 C   0  0  0  0  0  0  0  0  0  0  0  0
    0.7500    1.2990    0.0000 N   0  0  0  0  0  0  0  0  0  0  0  0
   -3.7500   -3.8971    0.0000 C   0  0  0  0  0  0  0  0  0  0  0  0
   -3.0000   -2.5981    0.0000 C   0  0  0  0  0  0  0  0  0  0  0  0
   -1.5000   -2.5981    0.0000 N   0  0  0  0  0  0  0  0  0  0  0  0
   -3.7500   -1.2990    0.0000 O   0  0  0  0  0  0  0  0  0  0  0  0
    5.2500    3.8971    0.0000 C   0  0  0  0  0  0  0  0  0  0  0  0
    6.0000    5.1962    0.0000 C   0  0  0  0  0  0  0  0  0  0  0  0
    9.7500    3.8971    0.0000 C   0  0  0  0  0  0  0  0  0  0  0  0
    8.2500    3.8971    0.0000 C   0  0  0  0  0  0  0  0  0  0  0  0
    7.5000    5.1962    0.0000 N   0  0  0  0  0  0  0  0  0  0  0  0
    8.2500    6.4952    0.0000 C   0  0  0  0  0  0  0  0  0  0  0  0
    9.7500    6.4952    0.0000 C   0  0  0  0  0  0  0  0  0  0  0  0
   10.5000    5.1962    0.0000 N   0  0  0  0  0  0  0  0  0  0  0  0
   12.0000    5.1962    0.0000 C   0  0  0  0  0  0  0  0  0  0  0  0
   12.7500    3.8971    0.0000 S   0  0  0  0  0  0  0  0  0  0  0  0
  1  2  1  0
  2  3  1  0
  3  4  2  0
  5  6  1  0
  6  7  1  0
  7  8  1  0
  8  9  1  0
  9 10  1  0
 10  5  1  0
 11 12  1  0
 12 13  1  0
 12 14  2  0
 15 16  2  3
 17 18  1  0
 18 19  1  0
 19 20  1  0
 20 21  1  0
 21 22  1  0
 22 17  1  0
 23 24  1  0
  3 10  1  0
  1 15  1  0
  7 13  1  0
 16 19  1  0
 22 23  1  0
M  END
$$$$

     RDKit          2D

 40 46  0  0  0  0  0  0  0  0999 V2000
    0.5773   -4.2803    0.0000 O   0  0  0  0  0  0  0  0  0  0  0  0
   -3.3037   -4.2221    0.0000 C   0  0  0  0  0  0  0  0  0  0  0  0
   -2.9918   -2.7549    0.0000 C   0  0  0  0  0  0  0  0  0  0  0  0
   -1.5000   -2.5981    0.0000 C   0  0  0  0  0  0  0  0  0  0  0  0
   -0.8899   -3.9684    0.0000 N   0  0  0  0  0  0  0  0  0  0  0  0
   -2.0046   -4.9721    0.0000 C   0  0  0  0  0  0  0  0  0  0  0  0
    1.5000    0.0000    0.0000 C   0  0  0  0  0  0  0  0  0  0  0  0
    0.7500   -1.2990    0.0000 C   0  0  0  0  0  0  0  0  0  0  0  0
   -0.7500   -1.2990    0.0000 C   0  0  0  0  0  0  0  0  0  0  0  0
   -1.5000    0.0000    0.0000 N   0  0  0  0  0  0  0  0  0  0  0  0
   -0.7500    1.2990    0.0000 C   0  0  0  0  0  0  0  0  0  0  0  0
    0.7500    1.2990    0.0000 C   0  0  0  0  0  0  0  0  0  0  0  0
   -7.2578   -4.5606    0.0000 C   0  0  0  0  0  0  0  0  0  0  0  0
   -5.8875   -3.9505    0.0000 C   0  0  0  0  0  0  0  0  0  0  0  0
   -4.6740   -4.8322    0.0000 C   0  0  0  0  0  0  0  0  0  0  0  0
   -4.8308   -6.3240    0.0000 O   0  0  0  0  0  0  0  0  0  0  0  0
   -6.2011   -6.9341    0.0000 C   0  0  0  0  0  0  0  0  0  0  0  0
   -7.4146   -6.0524    0.0000 C   0  0  0  0  0  0  0  0  0  0  0  0
   -6.3579   -8.4259    0.0000 C   0  0  0  0  0  0  0  0  0  0  0  0
   -7.7282   -9.0360    0.0000 C   0  0  0  0  0  0  0  0  0  0  0  0
   -7.8850  -10.5278    0.0000 C   0  0  0  0  0  0  0  0  0  0  0  0
   -6.6715  -11.4094    0.0000 O   0  0  0  0  0  0  0  0  0  0  0  0
   -5.3011  -10.7993    0.0000 C   0  0  0  0  0  0  0  0  0  0  0  0
   -5.1443   -9.3075    0.0000 C   0  0  0  0  0  0  0  0  0  0  0  0
   -1.8478   -6.4639    0.0000 C   0  0  0  0  0  0  0  0  0  0  0  0
   -0.4775   -7.0740    0.0000 C   0  0  0  0  0  0  0  0  0  0  0  0
    1.5000   -2.5981    0.0000 C   0  0  0  0  0  0  0  0  0  0  0  0
    2.7990   -3.3481    0.0000 C   0  0  0  0  0  0  0  0  0  0  0  0
    1.5000   -4.0981    0.0000 C   0  0  0  0  0  0  0  0  0  0  0  0
   -8.7849   -6.6625    0.0000 C   0  0  0  0  0  0  0  0  0  0  0  0
   -9.9984   -5.7808    0.0000 C   0  0  0  0  0  0  0  0  0  0  0  0
  -11.3688   -6.3909    0.0000 N   0  0  0  0  0  0  0  0  0  0  0  0
  -11.5256   -7.8827    0.0000 C   0  0  0  0  0  0  0  0  0  0  0  0
  -10.3120   -8.7644    0.0000 C   0  0  0  0  0  0  0  0  0  0  0  0
   -8.9417   -8.1543    0.0000 C   0  0  0  0  0  0  0  0  0  0  0  0
  -14.0089   -3.5457    0.0000 C   0  0  0  0  0  0  0  0  0  0  0  0
  -14.8906   -4.7593    0.0000 C   0  0  0  0  0  0  0  0  0  0  0  0
  -14.0089   -5.9728    0.0000 C   0  0  0  0  0  0  0  0  0  0  0  0
  -12.5823   -5.5093    0.0000 N   0  0  0  0  0  0  0  0  0  0  0  0
  -12.5823   -4.0093    0.0000 C   0  0  0  0  0  0  0  0  0  0  0  0
  2  3  1  0
  3  4  1  0
  4  5  1  0
  5  6  1  0
  6  2  1  0
  7  8  2  0
  8  9  1  0
  9 10  2  0
 10 11  1  0
 11 12  2  0
 12  7  1  0
 13 14  1  0
 14 15  1  0
 15 16  1  0
 16 17  1  0
 17 18  1  0
 18 13  1  0
 19 20  1  0
 20 21  1  0
 21 22  1  0
 22 23  1  0
 23 24  1  0
 24 19  1  0
 25 26  2  0
 27 28  1  0
 28 29  1  0
 29 27  1  0
 30 31  2  0
 31 32  1  0
 32 33  1  0
 33 34  2  0
 34 35  1  0
 35 30  1  0
 36 37  1  0
 37 38  1  0
 38 39  1  0
 39 40  1  0
 40 36  1  0
  1  5  1  0
  4  9  1  0
  2 15  1  0
  6 25  1  0
  8 27  1  0
 17 19  1  0
 18 30  1  0
 32 39  1  0
M  END
$$$$

     RDKit          2D

 35 39  0  0  0  0  0  0  0  0999 V2000
   -1.5000   -2.5981    0.0000 C   0  0  0  0  0  0  0  0  0  0  0  0
   -3.0000   -2.5981    0.0000 N   0  0  0  0  0  0  0  0  0  0  0  0
   -3.7500   -3.8971    0.0000 C   0  0  0  0  0  0  0  0  0  0  0  0
   -3.0000   -5.1962    0.0000 O   0  0  0  0  0  0  0  0  0  0  0  0
    1.5000    0.0000    0.0000 C   0  0  0  0  0  0  0  0  0  0  0  0
    0.7500   -1.2990    0.0000 C   0  0  0  0  0  0  0  0  0  0  0  0
   -0.7500   -1.2990    0.0000 C   0  0  0  0  0  0  0  0  0  0  0  0
   -1.5000    0.0000    0.0000 N   0  0  0  0  0  0  0  0  0  0  0  0
   -0.7500    1.2990    0.0000 C   0  0  0  0  0  0  0  0  0  0  0  0
    0.7500    1.2990    0.0000 C   0  0  0  0  0  0  0  0  0  0  0  0
    3.0000    0.0000    0.0000 O   0  0  0  0  0  0  0  0  0  0  0  0
   -5.2500   -3.8971    0.0000 C   0  0  0  0  0  0  0  0  0  0  0  0
   -6.7500   -3.8971    0.0000 N   0  0  0  0  0  0  0  0  0  0  0  0
    1.5000    2.5981    0.0000 C   0  0  0  0  0  0  0  0  0  0  0  0
    0.8899    3.9684    0.0000 C   0  0  0  0  0  0  0  0  0  0  0  0
    2.0046    4.9721    0.0000 C   0  0  0  0  0  0  0  0  0  0  0  0
    3.3037    4.2221    0.0000 N   0  0  0  0  0  0  0  0  0  0  0  0
    2.9918    2.7549    0.0000 C   0  0  0  0  0  0  0  0  0  0  0  0
    3.0000   -5.1962    0.0000 C   0  0  0  0  0  0  0  0  0  0  0  0
    1.5000   -5.1962    0.0000 C   0  0  0  0  0  0  0  0  0  0  0  0
    0.7500   -3.8971    0.0000 C   0  0  0  0  0  0  0  0  0  0  0  0
    1.5000   -2.5981    0.0000 N   0  0  0  0  0  4  0  0  0  0  0  0
    3.0000   -2.5981    0.0000 C   0  0  0  0  0  0  0  0  0  0  0  0
    3.7500   -3.8971    0.0000 C   0  0  0  0  0  0  0  0  0  0  0  0
   -1.5000    2.5981    0.0000 C   0  0  0  0  0  0  0  0  0  0  0  0
   -2.9918    2.7549    0.0000 C   0  0  0  0  0  0  0  0  0  0  0  0
   -3.3037    4.2221    0.0000 C   0  0  0  0  0  0  0  0  0  0  0  0
   -2.0046    4.9721    0.0000 O   0  0  0  0  0  0  0  0  0  0  0  0
   -0.8899    3.9684    0.0000 C   0  0  0  0  0  0  0  0  0  0  0  0
    4.6740    4.8322    0.0000 O   0  0  0  0  0  0  0  0  0  0  0  0
    1.8478    6.4639    0.0000 C   0  0  0  0  0  0  0  0  0  0  0  0
    0.5488    7.2139    0.0000 C   0  0  0  0  0  0  0  0  0  0  0  0
    0.8606    8.6811    0.0000 C   0  0  0  0  0  0  0  0  0  0  0  0
    2.3524    8.8379    0.0000 N   0  0  0  0  0  0  0  0  0  0  0  0
    2.9625    7.4676    0.0000 C   0  0  0  0  0  0  0  0  0  0  0  0
  1  2  1  0
  2  3  1  0
  3  4  2  0
  5  6  2  0
  6  7  1  0
  7  8  2  0
  8  9  1  0
  9 10  2  0
 10  5  1  0
 12 13  3  0
 14 15  1  0
 15 16  1  0
 16 17  1  0
 17 18  1  0
 18 14  1  0
 19 20  2  0
 20 21  1  0
 21 22  2  0
 22 23  1  0
 23 24  2  0
 24 19  1  0
 25 26  1  0
 26 27  1  0
 27 28  1  0
 28 29  1  0
 29 25  1  0
 31 32  1  0
 32 33  1  0
 33 34  1  0
 34 35  1  0
 35 31  1  0
  1  7  1  0
  3 12  1  0
  5 11  1  0
 10 14  1  0
  6 22  1  0
  9 25  1  0
 17 30  1  0
 16 31  1  0
M  CHG  1  22   1
M  END
$$$$
