
     RDKit          2D

 40 44  0  0  0  0  0  0  0  0999 V2000
    3.0613   -7.3456    0.0000 O   0  0  0  0  0  0  0  0  0  0  0  0
    1.8478   -6.4639    0.0000 C   0  0  0  0  0  0  0  0  0  0  0  0
    1.2197   -6.9547    0.0000 O   0  0  0  0  0  0  0  0  0  0  0  0
    2.9918   -2.7549    0.0000 C   0  0  0  0  0  0  0  0  0  0  0  0
    3.3037   -4.2221    0.0000 C   0  0  0  0  0  0  0  0  0  0  0  0
    2.0046   -4.9721    0.0000 C   0  0  0  0  0  0  0  0  0  0  0  0
    0.8899   -3.9684    0.0000 N   0  0  0  0  0  0  0  0  0  0  0  0
    1.5000   -2.5981    0.0000 C   0  0  0  0  0  0  0  0  0  0  0  0
    0.7500   -1.2990    0.0000 C   0  0  0  0  0  0  0  0  0  0  0  0
    1.5000    0.0000    0.0000 C   0  0  0  0  0  0  0  0  0  0  0  0
    0.7500    1.2990    0.0000 C   0  0  0  0  0  0  0  0  0  0  0  0
   -0.7500    1.2990    0.0000 O   0  0  0  0  0  0  0  0  0  0  0  0
   -1.5000    0.0000    0.0000 C   0  0  0  0  0  0  0  0  0  0  0  0
   -0.7500   -1.2990    0.0000 C   0  0  0  0  0  0  0  0  0  0  0  0
    3.9955   -1.6402    0.0000 C   0  0  0  0  0  0  0  0  0  0  0  0
    5.4627   -1.9520    0.0000 C   0  0  0  0  0  0  0  0  0  0  0  0
    6.4664   -0.8373    0.0000 C   0  0  0  0  0  0  0  0  0  0  0  0
    6.0029    0.5893    0.0000 O   0  0  0  0  0  0  0  0  0  0  0  0
    4.5356    0.9012    0.0000 C   0  0  0  0  0  0  0  0  0  0  0  0
    3.5320   -0.2136    0.0000 C   0  0  0  0  0  0  0  0  0  0  0  0
   -1.0409   -5.7068    0.0000 C   0  0  0  0  0  0  0  0  0  0  0  0
   -0.5773   -4.2803    0.0000 C   0  0  0  0  0  0  0  0  0  0  0  0
   -1.5810   -3.1655    0.0000 N   0  0  0  0  0  0  0  0  0  0  0  0
   -3.0482   -3.4774    0.0000 C   0  0  0  0  0  0  0  0  0  0  0  0
   -3.5118   -4.9040    0.0000 N   0  0  0  0  0  0  0  0  0  0  0  0
   -2.5081   -6.0187    0.0000 C   0  0  0  0  0  0  0  0  0  0  0  0
   -0.5007   -8.2481    0.0000 O   0  0  0  0  0  0  0  0  0  0  0  0
   -0.0372   -6.8216    0.0000 C   0  0  0  0  0  0  0  0  0  0  0  0
    0.7595   -6.8494    0.0000 O   0  0  0  0  0  0  0  0  0  0  0  0
   -4.0519   -2.3627    0.0000 C   0  0  0  0  0  0  0  0  0  0  0  0
   -5.5192   -2.6746    0.0000 O   0  0  0  0  0  0  0  0  0  0  0  0
   -1.9679   -8.5600    0.0000 C   0  0  0  0  0  0  0  0  0  0  0  0
   -2.9716   -7.4453    0.0000 C   0  0  0  0  0  0  0  0  0  0  0  0
   -4.4388   -7.7572    0.0000 C   0  0  0  0  0  0  0  0  0  0  0  0
   -4.9023   -9.1838    0.0000 O   0  0  0  0  0  0  0  0  0  0  0  0
   -3.8986  -10.2985    0.0000 C   0  0  0  0  0  0  0  0  0  0  0  0
   -2.4314   -9.9866    0.0000 C   0  0  0  0  0  0  0  0  0  0  0  0
    4.9225   -4.4933    0.0000 O   0  0  0  0  0  0  0  0  0  0  0  0
    5.9262   -3.3786    0.0000 C   0  0  0  0  0  0  0  0  0  0  0  0
    7.3934   -3.6905    0.0000 O   0  0  0  0  0  0  0  0  0  0  0  0
  1  2  2  0
  2  3  1  0
  4  5  1  0
  5  6  1  0
  6  7  1  0
  7  8  1  0
  8  4  1  0
  9 10  1  0
 10 11  1  0
 11 12  1  0
 12 13  1  0
 13 14  1  0
 14  9  1  0
 15 16  1  0
 16 17  1  0
 17 18  1  0
 18 19  1  0
 19 20  1  0
 20 15  1  0
 21 22  2  0
 22 23  1  0
 23 24  2  0
 24 25  1  0
 25 26  2  0
 26 21  1  0
 27 28  2  0
 28 29  1  0
 30 31  2  0
 32 33  1  0
 33 34  1  0
 34 35  1  0
 35 36  1  0
 36 37  1  0
 37 32  1  0
 38 39  2  0
 39 40  1  0
  2  6  1  0
  8  9  1  0
  4 15  1  0
  7 22  1  0
 16 39  1  0
 21 28  1  0
 24 30  1  0
 26 33  1  0
M  END
$$$$

     RDKit          2D

 54 62  0  0  0  0  0  0  0  0999 V2000
    2.9918    2.7549    0.0000 C   0  0  0  0  0  0  0  0  0  0  0  0
    3.3037    4.2221    0.0000 C   0  0  0  0  0  0  0  0  0  0  0  0
    2.0046    4.9721    0.0000 C   0  0  0  0  0  0  0  0  0  0  0  0
    0.8899    3.9684    0.0000 S   0  0  0  0  0  0  0  0  0  0  0  0
    1.5000    2.5981    0.0000 C   0  0  0  0  0  0  0  0  0  0  0  0
    0.7500   -1.2990    0.0000 C   0  0  0  0  0  0  0  0  0  0  0  0
    1.5000    0.0000    0.0000 C   0  0  0  0  0  0  0  0  0  0  0  0
    0.7500    1.2990    0.0000 N   0  0  0  0  0  0  0  0  0  0  0  0
   -0.7500    1.2990    0.0000 C   0  0  0  0  0  0  0  0  0  0  0  0
   -1.5000    0.0000    0.0000 C   0  0  0  0  0  0  0  0  0  0  0  0
   -0.7500   -1.2990    0.0000 C   0  0  0  0  0  0  0  0  0  0  0  0
    3.0613    7.3456    0.0000 C   0  0  0  0  0  0  0  0  0  0  0  0
    1.8478    6.4639    0.0000 C   0  0  0  0  0  0  0  0  0  0  0  0
    0.4775    7.0740    0.0000 C   0  0  0  0  0  0  0  0  0  0  0  0
    0.3207    8.5658    0.0000 O   0  0  0  0  0  0  0  0  0  0  0  0
    1.5342    9.4474    0.0000 C   0  0  0  0  0  0  0  0  0  0  0  0
    2.9046    8.8373    0.0000 C   0  0  0  0  0  0  0  0  0  0  0  0
    3.0000   -5.1962    0.0000 C   0  0  0  0  0  0  0  0  0  0  0  0
    3.7500   -3.8971    0.0000 C   0  0  0  0  0  0  0  0  0  0  0  0
    3.0000   -2.5981    0.0000 C   0  0  0  0  0  0  0  0  0  0  0  0
    1.5000   -2.5981    0.0000 C   0  0  0  0  0  0  0  0  0  0  0  0
    0.7500   -3.8971    0.0000 C   0  0  0  0  0  0  0  0  0  0  0  0
    1.5000   -5.1962    0.0000 C   0  0  0  0  0  0  0  0  0  0  0  0
    2.4342   13.3127    0.0000 C   0  0  0  0  0  0  0  0  0  0  0  0
    2.5910   11.8209    0.0000 C   0  0  0  0  0  0  0  0  0  0  0  0
    1.3774   10.9392    0.0000 C   0  0  0  0  0  0  0  0  0  0  0  0
    0.0071   11.5493    0.0000 N   0  0  0  0  0  0  0  0  0  0  0  0
   -0.1497   13.0411    0.0000 C   0  0  0  0  0  0  0  0  0  0  0  0
    1.0639   13.9228    0.0000 C   0  0  0  0  0  0  0  0  0  0  0  0
    0.7500   -9.0933    0.0000 C   0  0  0  0  0  0  0  0  0  0  0  0
   -0.7500   -9.0933    0.0000 C   0  0  0  0  0  0  0  0  0  0  0  0
   -1.5000   -7.7942    0.0000 C   0  0  0  0  0  0  0  0  0  0  0  0
   -0.7500   -6.4952    0.0000 O   0  0  0  0  0  0  0  0  0  0  0  0
    0.7500   -6.4952    0.0000 C   0  0  0  0  0  0  0  0  0  0  0  0
    1.5000   -7.7942    0.0000 C   0  0  0  0  0  0  0  0  0  0  0  0
   -3.3199    5.9207    0.0000 C   0  0  0  0  0  0  0  0  0  0  0  0
   -2.1063    6.8024    0.0000 C   0  0  0  0  0  0  0  0  0  0  0  0
   -0.7360    6.1923    0.0000 C   0  0  0  0  0  0  0  0  0  0  0  0
   -0.5792    4.7005    0.0000 O   0  0  0  0  0  0  0  0  0  0  0  0
   -1.7928    3.8188    0.0000 C   0  0  0  0  0  0  0  0  0  0  0  0
   -3.1631    4.4289    0.0000 C   0  0  0  0  0  0  0  0  0  0  0  0
    5.2500   -9.0933    0.0000 C   0  0  0  0  0  0  0  0  0  0  0  0
    3.7500   -9.0933    0.0000 C   0  0  0  0  0  0  0  0  0  0  0  0
    3.0000   -7.7942    0.0000 C   0  0  0  0  0  0  0  0  0  0  0  0
    3.7500   -6.4952    0.0000 N   0  0  0  0  0  0  0  0  0  0  0  0
    5.2500   -6.4952    0.0000 C   0  0  0  0  0  0  0  0  0  0  0  0
    6.0000   -7.7942    0.0000 C   0  0  0  0  0  0  0  0  0  0  0  0
    5.6452    7.6171    0.0000 O   0  0  0  0  0  0  0  0  0  0  0  0
    5.4884    9.1089    0.0000 C   0  0  0  0  0  0  0  0  0  0  0  0
    6.7019    9.9906    0.0000 N   0  0  0  0  0  0  0  0  0  0  0  0
    6.5451   11.4824    0.0000 C   0  0  0  0  0  0  0  0  0  0  0  0
    5.1748   12.0925    0.0000 C   0  0  0  0  0  0  0  0  0  0  0  0
    3.9613   11.2108    0.0000 C   0  0  0  0  0  0  0  0  0  0  0  0
    4.1181    9.7190    0.0000 N   0  0  0  0  0  0  0  0  0  0  0  0
  1  2  1  0
  2  3  2  0
  3  4  1  0
  4  5  1  0
  5  1  2  0
  6  7  2  0
  7  8  1  0
  8  9  1  0
  9 10  2  0
 10 11  1  0
 11  6  1  0
 12 13  1  0
 13 14  1  0
 14 15  1  0
 15 16  1  0
 16 17  1  0
 17 12  1  0
 18 19  2  0
 19 20  1  0
 20 21  2  0
 21 22  1  0
 22 23  2  0
 23 18  1  0
 24 25  2  0
 25 26  1  0
 26 27  2  0
 27 28  1  0
 28 29  2  0
 29 24  1  0
 30 31  1  0
 31 32  1  0
 32 33  1  0
 33 34  1  0
 34 35  1  0
 35 30  1  0
 36 37  1  0
 37 38  1  0
 38 39  1  0
 39 40  1  0
 40 41  1  0
 41 36  1  0
 42 43  1  0
 43 44  1  0
 44 45  1  0
 45 46  1  0
 46 47  1  0
 47 42  1  0
 48 49  2  0
 49 50  1  0
 50 51  2  0
 51 52  1  0
 52 53  2  0
 53 54  1  0
 54 49  1  0
  5  8  1  0
  3 13  1  0
  6 21  1  0
 16 26  1  0
 14 38  1  0
 17 54  1  0
 23 34  1  0
 18 45  1  0
M  END
$$$$

     RDKit          2D

 35 39  0  0  0  0  0  0  0  0999 V2000
    1.5000    2.5981    0.0000 C   0  0  0  0  0  0  0  0  0  0  0  0
    0.8899    3.9684    0.0000 C   0  0  0  0  0  0  0  0  0  0  0  0
    2.0046    4.9721    0.0000 C   0  0  0  0  0  0  0  0  0  0  0  0
    3.3037    4.2221    0.0000 O   0  0  0  0  0  0  0  0  0  0  0  0
    2.9918    2.7549    0.0000 C   0  0  0  0  0  0  0  0  0  0  0  0
   -0.5773    4.2803    0.0000 C   0  0  0  0  0  0  0  0  0  0  0  0
    0.7500   -1.2990    0.0000 C   0  0  0  0  0  0  0  0  0  0  0  0
    1.5000    0.0000    0.0000 C   0  0  0  0  0  0  0  0  0  0  0  0
    0.7500    1.2990    0.0000 C   0  0  0  0  0  0  0  0  0  0  0  0
   -0.7500    1.2990    0.0000 O   0  0  0  0  0  0  0  0  0  0  0  0
   -1.5000    0.0000    0.0000 C   0  0  0  0  0  0  0  0  0  0  0  0
   -0.7500   -1.2990    0.0000 C   0  0  0  0  0  0  0  0  0  0  0  0
    3.9955    1.6402    0.0000 C   0  0  0  0  0  0  0  0  0  0  0  0
    5.4873    1.7969    0.0000 C   0  0  0  0  0  0  0  0  0  0  0  0
    6.0974    0.4266    0.0000 C   0  0  0  0  0  0  0  0  0  0  0  0
    4.9826   -0.5771    0.0000 N   0  0  0  0  0  0  0  0  0  0  0  0
    3.6836    0.1729    0.0000 C   0  0  0  0  0  0  0  0  0  0  0  0
    3.3037   -4.2221    0.0000 C   0  0  0  0  0  0  0  0  0  0  0  0
    2.9918   -2.7549    0.0000 C   0  0  0  0  0  0  0  0  0  0  0  0
    1.5000   -2.5981    0.0000 C   0  0  0  0  0  0  0  0  0  0  0  0
    0.8899   -3.9684    0.0000 O   0  0  0  0  0  0  0  0  0  0  0  0
    2.0046   -4.9721    0.0000 C   0  0  0  0  0  0  0  0  0  0  0  0
    0.3207   -8.5658    0.0000 C   0  0  0  0  0  0  0  0  0  0  0  0
    0.4775   -7.0740    0.0000 C   0  0  0  0  0  0  0  0  0  0  0  0
    1.8478   -6.4639    0.0000 C   0  0  0  0  0  0  0  0  0  0  0  0
    3.0613   -7.3456    0.0000 O   0  0  0  0  0  0  0  0  0  0  0  0
    2.9046   -8.8373    0.0000 C   0  0  0  0  0  0  0  0  0  0  0  0
    1.5342   -9.4474    0.0000 C   0  0  0  0  0  0  0  0  0  0  0  0
   -3.0000    0.0000    0.0000 C   0  0  0  0  0  0  0  0  0  0  0  0
   -3.7500    1.2990    0.0000 N   0  0  0  0  0  0  0  0  0  0  0  0
   -5.2500    1.2990    0.0000 C   0  0  0  0  0  0  0  0  0  0  0  0
   -6.0000    2.5981    0.0000 O   0  0  0  0  0  0  0  0  0  0  0  0
    4.8308   -6.3240    0.0000 C   0  0  0  0  0  0  0  0  0  0  0  0
    4.6740   -4.8322    0.0000 S   0  0  0  0  0  3  0  0  0  0  0  0
    4.1181   -9.7190    0.0000 O   0  0  0  0  0  0  0  0  0  0  0  0
  1  2  1  0
  2  3  1  0
  3  4  1  0
  4  5  1  0
  5  1  1  0
  7  8  1  0
  8  9  1  0
  9 10  1  0
 10 11  1  0
 11 12  1  0
 12  7  1  0
 13 14  1  0
 14 15  1  0
 15 16  1  0
 16 17  1  0
 17 13  1  0
 18 19  1  0
 19 20  1  0
 20 21  1  0
 21 22  1  0
 22 18  1  0
 23 24  1  0
 24 25  1  0
 25 26  1  0
 26 27  1  0
 27 28  1  0
 28 23  1  0
 29 30  1  0
 30 31  1  0
 31 32  2  0
 33 34  1  0
  2  6  1  0
  1  9  1  0
  5 13  1  0
  7 20  1  0
 11 29  1  0
 22 25  1  0
 18 34  1  0
 27 35  1  0
M  CHG  1  34   1
M  END
$$$$

     RDKit          2D

 46 52  0  0  0  0  0  0  0  0999 V2000
   -3.9831    4.4211    0.0000 C   0  0  0  0  0  0  0  0  0  0  0  0
   -5.0978    5.4248    0.0000 N   0  0  0  0  0  0  0  0  0  0  0  0
   -6.5244    4.9613    0.0000 C   0  0  0  0  0  0  0  0  0  0  0  0
   -6.8363    3.4941    0.0000 O   0  0  0  0  0  0  0  0  0  0  0  0
   -0.0152    4.3445    0.0000 C   0  0  0  0  0  0  0  0  0  0  0  0
   -1.4418    3.8810    0.0000 C   0  0  0  0  0  0  0  0  0  0  0  0
   -2.5565    4.8847    0.0000 C   0  0  0  0  0  0  0  0  0  0  0  0
   -2.2447    6.3519    0.0000 O   0  0  0  0  0  0  0  0  0  0  0  0
   -0.8181    6.8154    0.0000 C   0  0  0  0  0  0  0  0  0  0  0  0
    0.2966    5.8117    0.0000 C   0  0  0  0  0  0  0  0  0  0  0  0
   -7.6391    5.9650    0.0000 C   0  0  0  0  0  0  0  0  0  0  0  0
   -7.3273    7.4322    0.0000 C   0  0  0  0  0  0  0  0  0  0  0  0
   -8.4420    8.4359    0.0000 C   0  0  0  0  0  0  0  0  0  0  0  0
   -9.8686    7.9724    0.0000 O   0  0  0  0  0  0  0  0  0  0  0  0
  -10.1805    6.5052    0.0000 C   0  0  0  0  0  0  0  0  0  0  0  0
   -9.0657    5.5015    0.0000 C   0  0  0  0  0  0  0  0  0  0  0  0
  -11.6070    6.0417    0.0000 C   0  0  0  0  0  0  0  0  0  0  0  0
  -12.7218    7.0454    0.0000 C   0  0  0  0  0  0  0  0  0  0  0  0
  -14.1483    6.5818    0.0000 C   0  0  0  0  0  0  0  0  0  0  0  0
  -14.4602    5.1146    0.0000 N   0  0  0  0  0  0  0  0  0  0  0  0
  -13.3455    4.1109    0.0000 C   0  0  0  0  0  0  0  0  0  0  0  0
  -11.9189    4.5744    0.0000 C   0  0  0  0  0  0  0  0  0  0  0  0
    2.2142    2.3371    0.0000 O   0  0  0  0  0  0  0  0  0  0  0  0
    1.0995    3.3408    0.0000 P   0  0  0  0  0  5  0  0  0  0  0  0
    2.1032    4.4555    0.0000 O   0  0  0  0  0  0  0  0  0  0  0  0
    0.0958    2.2261    0.0000 O   0  0  0  0  0  0  0  0  0  0  0  0
   -5.9007    7.8958    0.0000 C   0  0  0  0  0  0  0  0  0  0  0  0
   -4.8970    9.0105    0.0000 C   0  0  0  0  0  0  0  0  0  0  0  0
   -4.4335    7.5839    0.0000 C   0  0  0  0  0  0  0  0  0  0  0  0
   -6.7598   10.5133    0.0000 C   0  0  0  0  0  0  0  0  0  0  0  0
   -6.9166   12.0050    0.0000 C   0  0  0  0  0  0  0  0  0  0  0  0
   -8.3838   12.3169    0.0000 C   0  0  0  0  0  0  0  0  0  0  0  0
   -9.1338   11.0179    0.0000 N   0  0  0  0  0  0  0  0  0  0  0  0
   -8.1301    9.9032    0.0000 C   0  0  0  0  0  0  0  0  0  0  0  0
    1.5000    0.0000    0.0000 C   0  0  0  0  0  0  0  0  0  0  0  0
    0.7500   -1.2990    0.0000 N   0  0  0  0  0  0  0  0  0  0  0  0
   -0.7500   -1.2990    0.0000 C   0  0  0  0  0  0  0  0  0  0  0  0
   -1.5000    0.0000    0.0000 C   0  0  0  0  0  0  0  0  0  0  0  0
   -2.9672    0.3119    0.0000 N   0  0  0  0  0  0  0  0  0  0  0  0
   -3.1240    1.8037    0.0000 C   0  0  0  0  0  0  0  0  0  0  0  0
   -1.7537    2.4138    0.0000 N   0  0  0  0  0  0  0  0  0  0  0  0
   -0.7500    1.2990    0.0000 C   0  0  0  0  0  0  0  0  0  0  0  0
    0.7500    1.2990    0.0000 N   0  0  0  0  0  0  0  0  0  0  0  0
   -1.5000   -2.5981    0.0000 C   0  0  0  0  0  0  0  0  0  0  0  0
   -0.7500   -3.8971    0.0000 C   0  0  0  0  0  0  0  0  0  0  0  0
   -1.5000   -5.1962    0.0000 C   0  0  0  0  0  0  0  0  0  0  0  0
  1  2  1  0
  2  3  1  0
  3  4  2  0
  5  6  1  0
  6  7  1  0
  7  8  1  0
  8  9  1  0
  9 10  1  0
 10  5  1  0
 11 12  1  0
 12 13  1  0
 13 14  1  0
 14 15  1  0
 15 16  1  0
 16 11  1  0
 17 18  2  0
 18 19  1  0
 19 20  2  0
 20 21  1  0
 21 22  2  0
 22 17  1  0
 23 24  2  0
 24 25  1  0
 24 26  1  0
 27 28  1  0
 28 29  1  0
 29 27  1  0
 30 31  1  0
 31 32  1  0
 32 33  1  0
 33 34  1  0
 34 30  1  0
 35 36  2  0
 36 37  1  0
 37 38  2  0
 38 39  1  0
 39 40  2  0
 40 41  1  0
 41 42  1  0
 42 43  2  0
 43 35  1  0
 42 38  1  0
 44 45  2  3
 45 46  1  0
  1  7  1  0
  3 11  1  0
  5 24  1  0
  6 41  1  0
 15 17  1  0
 12 27  1  0
 13 34  1  0
 37 44  1  0
M  END
$$$$

     RDKit          2D

 45 51  0  0  0  0  0  0  0  0999 V2000
   -6.9240   -8.7293    0.0000 C   0  0  0  0  0  0  0  0  0  0  0  0
   -8.1375   -7.8476    0.0000 C   0  0  0  0  0  0  0  0  0  0  0  0
   -9.5078   -8.4577    0.0000 N   0  0  0  0  0  0  0  0  0  0  0  0
   -9.6646   -9.9495    0.0000 C   0  0  0  0  0  0  0  0  0  0  0  0
   -8.4511  -10.8312    0.0000 C   0  0  0  0  0  0  0  0  0  0  0  0
   -7.0808  -10.2211    0.0000 C   0  0  0  0  0  0  0  0  0  0  0  0
   -3.7500   -6.4952    0.0000 C   0  0  0  0  0  0  0  0  0  0  0  0
   -3.1399   -7.8655    0.0000 C   0  0  0  0  0  0  0  0  0  0  0  0
   -4.2546   -8.8692    0.0000 C   0  0  0  0  0  0  0  0  0  0  0  0
   -5.5537   -8.1192    0.0000 N   0  0  0  0  0  0  0  0  0  0  0  0
   -5.2418   -6.6520    0.0000 C   0  0  0  0  0  0  0  0  0  0  0  0
   -1.5000   -5.1962    0.0000 C   0  0  0  0  0  0  0  0  0  0  0  0
   -3.0000   -5.1962    0.0000 C   0  0  0  0  0  0  0  0  0  0  0  0
   -8.3474   -4.3237    0.0000 C   0  0  0  0  0  0  0  0  0  0  0  0
   -7.7373   -5.6941    0.0000 C   0  0  0  0  0  0  0  0  0  0  0  0
   -6.2455   -5.5373    0.0000 C   0  0  0  0  0  0  0  0  0  0  0  0
   -5.9336   -4.0700    0.0000 N   0  0  0  0  0  0  0  0  0  0  0  0
   -7.2326   -3.3200    0.0000 C   0  0  0  0  0  0  0  0  0  0  0  0
   -4.5633   -3.4599    0.0000 C   0  0  0  0  0  0  0  0  0  0  0  0
   -4.2514   -1.9927    0.0000 C   0  0  0  0  0  0  0  0  0  0  0  0
   -2.7596   -1.8359    0.0000 C   0  0  0  0  0  0  0  0  0  0  0  0
   -2.1495   -3.2062    0.0000 O   0  0  0  0  0  0  0  0  0  0  0  0
   -3.2643   -4.2099    0.0000 C   0  0  0  0  0  0  0  0  0  0  0  0
   -8.9166    0.2736    0.0000 C   0  0  0  0  0  0  0  0  0  0  0  0
   -8.7598   -1.2182    0.0000 C   0  0  0  0  0  0  0  0  0  0  0  0
   -7.3894   -1.8283    0.0000 C   0  0  0  0  0  0  0  0  0  0  0  0
   -6.1759   -0.9466    0.0000 C   0  0  0  0  0  0  0  0  0  0  0  0
   -6.3327    0.5452    0.0000 C   0  0  0  0  0  0  0  0  0  0  0  0
   -7.7030    1.1553    0.0000 C   0  0  0  0  0  0  0  0  0  0  0  0
   -4.0978  -10.3610    0.0000 C   0  0  0  0  0  0  0  0  0  0  0  0
   -5.3113  -11.2427    0.0000 N   0  0  0  0  0  4  0  0  0  0  0  0
   -0.7500   -3.8971    0.0000 C   0  0  0  0  0  0  0  0  0  0  0  0
    0.7500   -3.8971    0.0000 C   0  0  0  0  0  0  0  0  0  0  0  0
    1.5000   -2.5981    0.0000 C   0  0  0  0  0  0  0  0  0  0  0  0
    0.7500   -1.2990    0.0000 C   0  0  0  0  0  0  0  0  0  0  0  0
    1.5000    0.0000    0.0000 C   0  0  0  0  0  0  0  0  0  0  0  0
    0.7500    1.2990    0.0000 C   0  0  0  0  0  0  0  0  0  0  0  0
   -0.7500    1.2990    0.0000 C   0  0  0  0  0  0  0  0  0  0  0  0
   -1.5000    0.0000    0.0000 C   0  0  0  0  0  0  0  0  0  0  0  0
   -0.7500   -1.2990    0.0000 C   0  0  0  0  0  0  0  0  0  0  0  0
   -1.5000   -2.5981    0.0000 C   0  0  0  0  0  0  0  0  0  0  0  0
   -5.7953    1.6633    0.0000 C   0  0  0  0  0  0  0  0  0  0  0  0
   -4.7916    0.5486    0.0000 N   0  0  0  0  0  0  0  0  0  0  0  0
   -5.2551   -0.8780    0.0000 C   0  0  0  0  0  0  0  0  0  0  0  0
   -6.0518   -0.8501    0.0000 O   0  0  0  0  0  0  0  0  0  0  0  0
  1  2  2  0
  2  3  1  0
  3  4  1  0
  4  5  2  0
  5  6  1  0
  6  1  1  0
  7  8  1  0
  8  9  1  0
  9 10  1  0
 10 11  1  0
 11  7  1  0
 12 13  2  3
 14 15  1  0
 15 16  1  0
 16 17  1  0
 17 18  1  0
 18 14  1  0
 19 20  1  0
 20 21  1  0
 21 22  1  0
 22 23  1  0
 23 19  1  0
 24 25  2  0
 25 26  1  0
 26 27  1  0
 27 28  1  0
 28 29  1  0
 29 24  1  0
 30 31  1  0
 32 33  2  0
 33 34  1  0
 34 35  2  0
 35 36  1  0
 36 37  2  0
 37 38  1  0
 38 39  2  0
 39 40  1  0
 40 41  2  0
 41 32  1  0
 40 35  1  0
 42 43  1  0
 43 44  1  0
 44 45  2  0
  1 10  1  0
  7 13  1  0
 11 16  1  0
  9 30  1  0
 12 32  1  0
 17 19  1  0
 18 26  1  0
 20 44  1  0
M  CHG  1  31   1
M  END
$$$$

     RDKit          2D

 49 56  0  0  0  0  0  0  0  0999 V2000
    0.5745    8.4538    0.0000 C   0  0  0  0  0  0  0  0  0  0  0  0
    1.6893    9.4575    0.0000 C   0  0  0  0  0  0  0  0  0  0  0  0
    3.1158    8.9940    0.0000 C   0  0  0  0  0  0  0  0  0  0  0  0
    3.4277    7.5267    0.0000 N   0  0  0  0  0  0  0  0  0  0  0  0
    2.3130    6.5230    0.0000 C   0  0  0  0  0  0  0  0  0  0  0  0
    0.8864    6.9866    0.0000 C   0  0  0  0  0  0  0  0  0  0  0  0
   -0.2283    5.9829    0.0000 C   0  0  0  0  0  0  0  0  0  0  0  0
   -0.0715    4.4911    0.0000 C   0  0  0  0  0  0  0  0  0  0  0  0
   -1.4418    3.8810    0.0000 C   0  0  0  0  0  0  0  0  0  0  0  0
   -2.4455    4.9957    0.0000 N   0  0  0  0  0  0  0  0  0  0  0  0
   -1.6955    6.2947    0.0000 C   0  0  0  0  0  0  0  0  0  0  0  0
    1.5000    0.0000    0.0000 C   0  0  0  0  0  0  0  0  0  0  0  0
    0.7500   -1.2990    0.0000 C   0  0  0  0  0  0  0  0  0  0  0  0
   -0.7500   -1.2990    0.0000 C   0  0  0  0  0  0  0  0  0  0  0  0
   -1.5000    0.0000    0.0000 C   0  0  0  0  0  0  0  0  0  0  0  0
   -2.9672    0.3119    0.0000 N   0  0  0  0  0  0  0  0  0  0  0  0
   -3.1240    1.8037    0.0000 C   0  0  0  0  0  0  0  0  0  0  0  0
   -1.7537    2.4138    0.0000 C   0  0  0  0  0  0  0  0  0  0  0  0
   -0.7500    1.2990    0.0000 C   0  0  0  0  0  0  0  0  0  0  0  0
    0.7500    1.2990    0.0000 C   0  0  0  0  0  0  0  0  0  0  0  0
    1.3774   10.9247    0.0000 C   0  0  0  0  0  0  0  0  0  0  0  0
    2.4921   11.9284    0.0000 C   0  0  0  0  0  0  0  0  0  0  0  0
    2.1802   13.3956    0.0000 C   0  0  0  0  0  0  0  0  0  0  0  0
    0.7537   13.8591    0.0000 O   0  0  0  0  0  0  0  0  0  0  0  0
   -0.3611   12.8554    0.0000 C   0  0  0  0  0  0  0  0  0  0  0  0
   -0.0492   11.3882    0.0000 C   0  0  0  0  0  0  0  0  0  0  0  0
   -1.7876   13.3190    0.0000 C   0  0  0  0  0  0  0  0  0  0  0  0
   -2.0995   14.7862    0.0000 C   0  0  0  0  0  0  0  0  0  0  0  0
   -3.5261   15.2497    0.0000 C   0  0  0  0  0  0  0  0  0  0  0  0
   -3.9373    4.8389    0.0000 C   0  0  0  0  0  0  0  0  0  0  0  0
   -4.8190    6.0524    0.0000 N   0  0  0  0  0  0  0  0  0  0  0  0
   -6.3108    5.8956    0.0000 C   0  0  0  0  0  0  0  0  0  0  0  0
   -7.1924    7.1092    0.0000 O   0  0  0  0  0  0  0  0  0  0  0  0
    3.2950   14.3993    0.0000 C   0  0  0  0  0  0  0  0  0  0  0  0
    3.1382   15.8911    0.0000 C   0  0  0  0  0  0  0  0  0  0  0  0
    4.5085   16.5012    0.0000 C   0  0  0  0  0  0  0  0  0  0  0  0
    5.5122   15.3865    0.0000 N   0  0  0  0  0  0  0  0  0  0  0  0
    4.7622   14.0874    0.0000 C   0  0  0  0  0  0  0  0  0  0  0  0
    4.5667   20.3822    0.0000 C   0  0  0  0  0  0  0  0  0  0  0  0
    3.8167   19.0831    0.0000 C   0  0  0  0  0  0  0  0  0  0  0  0
    4.8204   17.9684    0.0000 C   0  0  0  0  0  0  0  0  0  0  0  0
    6.1907   18.5785    0.0000 S   0  0  0  0  0  0  0  0  0  0  0  0
    6.0339   20.0703    0.0000 C   0  0  0  0  0  0  0  0  0  0  0  0
    9.6899   21.6142    0.0000 C   0  0  0  0  0  0  0  0  0  0  0  0
    8.5752   20.6105    0.0000 C   0  0  0  0  0  0  0  0  0  0  0  0
    7.1486   21.0740    0.0000 N   0  0  0  0  0  0  0  0  0  0  0  0
    6.8367   22.5412    0.0000 C   0  0  0  0  0  0  0  0  0  0  0  0
    7.9514   23.5449    0.0000 C   0  0  0  0  0  0  0  0  0  0  0  0
    9.3780   23.0814    0.0000 N   0  0  0  0  0  0  0  0  0  0  0  0
  1  2  2  0
  2  3  1  0
  3  4  2  0
  4  5  1  0
  5  6  2  0
  6  1  1  0
  7  8  1  0
  8  9  1  0
  9 10  1  0
 10 11  1  0
 11  7  1  0
 12 13  2  0
 13 14  1  0
 14 15  2  0
 15 16  1  0
 16 17  1  0
 17 18  2  0
 18 19  1  0
 19 20  2  0
 20 12  1  0
 19 15  1  0
 21 22  1  0
 22 23  1  0
 23 24  1  0
 24 25  1  0
 25 26  1  0
 26 21  1  0
 27 28  2  3
 28 29  1  0
 30 31  1  0
 31 32  1  0
 32 33  2  0
 34 35  1  0
 35 36  1  0
 36 37  1  0
 37 38  1  0
 38 34  1  0
 39 40  1  0
 40 41  2  0
 41 42  1  0
 42 43  1  0
 43 39  2  0
 44 45  1  0
 45 46  1  0
 46 47  1  0
 47 48  1  0
 48 49  1  0
 49 44  1  0
  6  7  1  0
  2 21  1  0
  9 18  1  0
 10 30  1  0
 25 27  1  0
 23 34  1  0
 36 41  1  0
 43 46  1  0
M  END
$$$$

     RDKit          2D

 41 47  0  0  0  0  0  0  0  0999 V2000
    1.5000    0.0000    0.0000 C   0  0  0  0  0  0  0  0  0  0  0  0
    0.7500   -1.2990    0.0000 N   0  0  0  0  0  0  0  0  0  0  0  0
   -0.7500   -1.2990    0.0000 C   0  0  0  0  0  0  0  0  0  0  0  0
   -1.5000    0.0000    0.0000 C   0  0  0  0  0  0  0  0  0  0  0  0
   -2.9672    0.3119    0.0000 N   0  0  0  0  0  0  0  0  0  0  0  0
   -3.1240    1.8037    0.0000 C   0  0  0  0  0  0  0  0  0  0  0  0
   -1.7537    2.4138    0.0000 N   0  0  0  0  0  0  0  0  0  0  0  0
   -0.7500    1.2990    0.0000 C   0  0  0  0  0  0  0  0  0  0  0  0
    0.7500    1.2990    0.0000 N   0  0  0  0  0  0  0  0  0  0  0  0
   -1.5000   -5.1962    0.0000 C   0  0  0  0  0  0  0  0  0  0  0  0
   -0.7500   -3.8971    0.0000 C   0  0  0  0  0  0  0  0  0  0  0  0
   -1.5000   -2.5981    0.0000 C   0  0  0  0  0  0  0  0  0  0  0  0
   -3.0000   -2.5981    0.0000 N   0  0  0  0  0  0  0  0  0  0  0  0
   -3.7500   -3.8971    0.0000 C   0  0  0  0  0  0  0  0  0  0  0  0
   -3.0000   -5.1962    0.0000 C   0  0  0  0  0  0  0  0  0  0  0  0
    0.2966    5.8117    0.0000 C   0  0  0  0  0  0  0  0  0  0  0  0
   -0.0152    4.3445    0.0000 C   0  0  0  0  0  0  0  0  0  0  0  0
   -1.4418    3.8810    0.0000 C   0  0  0  0  0  0  0  0  0  0  0  0
   -2.5565    4.8847    0.0000 N   0  0  0  0  0  0  0  0  0  0  0  0
   -2.2447    6.3519    0.0000 C   0  0  0  0  0  0  0  0  0  0  0  0
   -0.8181    6.8154    0.0000 C   0  0  0  0  0  0  0  0  0  0  0  0
   -5.2500   -3.8971    0.0000 C   0  0  0  0  0  0  0  0  0  0  0  0
   -6.0000   -2.5981    0.0000 S   0  0  0  0  0  0  0  0  0  0  0  0
   -0.5062    8.2826    0.0000 C   0  0  0  0  0  0  0  0  0  0  0  0
    0.9204    8.7462    0.0000 O   0  0  0  0  0  0  0  0  0  0  0  0
    1.0537   -8.1192    0.0000 C   0  0  0  0  0  0  0  0  0  0  0  0
   -0.2454   -8.8692    0.0000 C   0  0  0  0  0  0  0  0  0  0  0  0
   -1.3601   -7.8655    0.0000 C   0  0  0  0  0  0  0  0  0  0  0  0
   -0.7500   -6.4952    0.0000 N   0  0  0  0  0  0  0  0  0  0  0  0
    0.7418   -6.6520    0.0000 C   0  0  0  0  0  0  0  0  0  0  0  0
   -5.2411   -7.9237    0.0000 C   0  0  0  0  0  0  0  0  0  0  0  0
   -4.9292   -9.3909    0.0000 C   0  0  0  0  0  0  0  0  0  0  0  0
   -3.4374   -9.5477    0.0000 C   0  0  0  0  0  0  0  0  0  0  0  0
   -2.8273   -8.1774    0.0000 N   0  0  0  0  0  0  0  0  0  0  0  0
   -3.9420   -7.1737    0.0000 C   0  0  0  0  0  0  0  0  0  0  0  0
   -4.0420   -6.2751    0.0000 O   0  0  0  0  0  0  0  0  0  0  0  0
    3.0583   -3.1471    0.0000 C   0  0  0  0  0  0  0  0  0  0  0  0
    3.0583   -4.6471    0.0000 C   0  0  0  0  0  0  0  0  0  0  0  0
    1.6317   -5.1106    0.0000 C   0  0  0  0  0  0  0  0  0  0  0  0
    0.7500   -3.8971    0.0000 N   0  0  0  0  0  0  0  0  0  0  0  0
    1.6317   -2.6836    0.0000 C   0  0  0  0  0  0  0  0  0  0  0  0
  1  2  2  0
  2  3  1  0
  3  4  2  0
  4  5  1  0
  5  6  2  0
  6  7  1  0
  7  8  1  0
  8  9  2  0
  9  1  1  0
  8  4  1  0
 10 11  2  0
 11 12  1  0
 12 13  2  0
 13 14  1  0
 14 15  2  0
 15 10  1  0
 16 17  2  0
 17 18  1  0
 18 19  2  0
 19 20  1  0
 20 21  2  0
 21 16  1  0
 22 23  1  0
 24 25  1  0
 26 27  1  0
 27 28  1  0
 28 29  1  0
 29 30  1  0
 30 26  1  0
 31 32  1  0
 32 33  1  0
 33 34  1  0
 34 35  1  0
 35 31  1  0
 37 38  1  0
 38 39  1  0
 39 40  1  0
 40 41  1  0
 41 37  1  0
  3 12  1  0
  7 18  1  0
 14 22  1  0
 10 29  1  0
 15 36  1  0
 11 40  1  0
 21 24  1  0
 28 34  1  0
M  END
$$$$

     RDKit          2D

 46 52  0  0  0  0  0  0  0  0999 V2000
    5.2500   -3.8971    0.0000 C   0  0  0  0  0  0  0  0  0  0  0  0
    6.0000   -5.1962    0.0000 C   0  0  0  0  0  0  0  0  0  0  0  0
    3.0000   -2.5981    0.0000 C   0  0  0  0  0  0  0  0  0  0  0  0
    3.7500   -3.8971    0.0000 C   0  0  0  0  0  0  0  0  0  0  0  0
   -0.7500   -3.8971    0.0000 C   0  0  0  0  0  0  0  0  0  0  0  0
    0.7500   -3.8971    0.0000 C   0  0  0  0  0  0  0  0  0  0  0  0
    1.5000   -2.5981    0.0000 C   0  0  0  0  0  0  0  0  0  0  0  0
    0.7500   -1.2990    0.0000 C   0  0  0  0  0  0  0  0  0  0  0  0
    1.5000    0.0000    0.0000 C   0  0  0  0  0  0  0  0  0  0  0  0
    0.7500    1.2990    0.0000 C   0  0  0  0  0  0  0  0  0  0  0  0
   -0.7500    1.2990    0.0000 C   0  0  0  0  0  0  0  0  0  0  0  0
   -1.5000    0.0000    0.0000 C   0  0  0  0  0  0  0  0  0  0  0  0
   -0.7500   -1.2990    0.0000 C   0  0  0  0  0  0  0  0  0  0  0  0
   -1.5000   -2.5981    0.0000 C   0  0  0  0  0  0  0  0  0  0  0  0
   -1.5000   -5.1962    0.0000 C   0  0  0  0  0  0  0  0  0  0  0  0
   -3.0000   -5.1962    0.0000 C   0  0  0  0  0  0  0  0  0  0  0  0
   -3.7500   -6.4952    0.0000 C   0  0  0  0  0  0  0  0  0  0  0  0
   -3.0000   -7.7942    0.0000 N   0  0  0  0  0  0  0  0  0  0  0  0
   -1.5000   -7.7942    0.0000 C   0  0  0  0  0  0  0  0  0  0  0  0
   -0.7500   -6.4952    0.0000 C   0  0  0  0  0  0  0  0  0  0  0  0
   -3.1399   -2.5268    0.0000 C   0  0  0  0  0  0  0  0  0  0  0  0
   -4.2546   -1.5231    0.0000 C   0  0  0  0  0  0  0  0  0  0  0  0
   -5.5537   -2.2731    0.0000 C   0  0  0  0  0  0  0  0  0  0  0  0
   -5.2418   -3.7403    0.0000 N   0  0  0  0  0  0  0  0  0  0  0  0
   -3.7500   -3.8971    0.0000 C   0  0  0  0  0  0  0  0  0  0  0  0
   -0.7500  -11.6913    0.0000 C   0  0  0  0  0  0  0  0  0  0  0  0
   -1.5000  -10.3923    0.0000 C   0  0  0  0  0  0  0  0  0  0  0  0
   -0.7500   -9.0933    0.0000 C   0  0  0  0  0  0  0  0  0  0  0  0
    0.7500   -9.0933    0.0000 O   0  0  0  0  0  0  0  0  0  0  0  0
    1.5000  -10.3923    0.0000 C   0  0  0  0  0  0  0  0  0  0  0  0
    0.7500  -11.6913    0.0000 C   0  0  0  0  0  0  0  0  0  0  0  0
    1.5000  -12.9904    0.0000 C   0  0  0  0  0  0  0  0  0  0  0  0
    0.7500  -14.2894    0.0000 C   0  0  0  0  0  0  0  0  0  0  0  0
    1.5000  -15.5885    0.0000 N   0  0  0  0  0  0  0  0  0  0  0  0
    3.0000  -15.5885    0.0000 C   0  0  0  0  0  0  0  0  0  0  0  0
    3.7500  -14.2894    0.0000 C   0  0  0  0  0  0  0  0  0  0  0  0
    3.0000  -12.9904    0.0000 C   0  0  0  0  0  0  0  0  0  0  0  0
    9.7500   -6.4952    0.0000 C   0  0  0  0  0  0  0  0  0  0  0  0
    8.2500   -6.4952    0.0000 C   0  0  0  0  0  0  0  0  0  0  0  0
    7.5000   -5.1962    0.0000 N   0  0  0  0  0  0  0  0  0  0  0  0
    8.2500   -3.8971    0.0000 C   0  0  0  0  0  0  0  0  0  0  0  0
    9.7500   -3.8971    0.0000 C   0  0  0  0  0  0  0  0  0  0  0  0
   10.5000   -5.1962    0.0000 C   0  0  0  0  0  0  0  0  0  0  0  0
    9.7500   -9.0933    0.0000 O   0  0  0  0  0  0  0  0  0  0  0  0
   10.5000   -7.7942    0.0000 N   0  0  0  0  0  4  0  0  0  0  0  0
   12.0000   -7.7942    0.0000 O   0  0  0  0  0  1  0  0  0  0  0  0
  1  2  2  3
  3  4  2  3
  5  6  2  0
  6  7  1  0
  7  8  2  0
  8  9  1  0
  9 10  2  0
 10 11  1  0
 11 12  2  0
 12 13  1  0
 13 14  2  0
 14  5  1  0
 13  8  1  0
 15 16  1  0
 16 17  2  0
 17 18  1  0
 18 19  2  0
 19 20  1  0
 20 15  2  0
 21 22  1  0
 22 23  1  0
 23 24  1  0
 24 25  1  0
 25 21  1  0
 26 27  1  0
 27 28  1  0
 28 29  1  0
 29 30  1  0
 30 31  1  0
 31 26  1  0
 32 33  2  0
 33 34  1  0
 34 35  1  0
 35 36  2  0
 36 37  1  0
 37 32  1  0
 38 39  2  0
 39 40  1  0
 40 41  1  0
 41 42  2  0
 42 43  1  0
 43 38  1  0
 44 45  2  0
 45 46  1  0
  1  4  1  0
  2 40  1  0
  3  7  1  0
  5 15  1  0
 16 25  1  0
 19 28  1  0
 31 32  1  0
 38 45  1  0
M  CHG  2  45   1  46  -1
M  END
$$$$

     RDKit          2D

 46 51  0  0  0  0  0  0  0  0999 V2000
    2.2856   -5.5940    0.0000 C   0  0  0  0  0  0  0  0  0  0  0  0
    3.7529   -5.9059    0.0000 C   0  0  0  0  0  0  0  0  0  0  0  0
    4.2164   -7.3325    0.0000 C   0  0  0  0  0  0  0  0  0  0  0  0
    3.2127   -8.4472    0.0000 C   0  0  0  0  0  0  0  0  0  0  0  0
    1.7455   -8.1353    0.0000 C   0  0  0  0  0  0  0  0  0  0  0  0
    1.2820   -6.7088    0.0000 C   0  0  0  0  0  0  0  0  0  0  0  0
    0.7418   -9.2501    0.0000 C   0  0  0  0  0  0  0  0  0  0  0  0
    1.0537  -10.7173    0.0000 C   0  0  0  0  0  0  0  0  0  0  0  0
   -0.2454  -11.4673    0.0000 C   0  0  0  0  0  0  0  0  0  0  0  0
   -1.3601  -10.4636    0.0000 N   0  0  0  0  0  0  0  0  0  0  0  0
   -0.7500   -9.0933    0.0000 C   0  0  0  0  0  0  0  0  0  0  0  0
    6.2238   -5.1031    0.0000 C   0  0  0  0  0  0  0  0  0  0  0  0
    4.7566   -4.7912    0.0000 C   0  0  0  0  0  0  0  0  0  0  0  0
    8.6947   -4.3002    0.0000 O   0  0  0  0  0  0  0  0  0  0  0  0
    7.2275   -3.9883    0.0000 S   0  0  0  0  0  0  0  0  0  0  0  0
    6.7640   -2.5618    0.0000 O   0  0  0  0  0  0  0  0  0  0  0  0
   -0.4022  -12.9591    0.0000 C   0  0  0  0  0  0  0  0  0  0  0  0
   -1.7725  -13.5692    0.0000 N   0  0  0  0  0  0  0  0  0  0  0  0
   -1.9293  -15.0610    0.0000 C   0  0  0  0  0  0  0  0  0  0  0  0
   -0.7158  -15.9426    0.0000 O   0  0  0  0  0  0  0  0  0  0  0  0
   -3.7500   -6.4952    0.0000 C   0  0  0  0  0  0  0  0  0  0  0  0
   -3.0000   -5.1962    0.0000 C   0  0  0  0  0  0  0  0  0  0  0  0
   -1.5000   -5.1962    0.0000 C   0  0  0  0  0  0  0  0  0  0  0  0
   -0.7500   -6.4952    0.0000 O   0  0  0  0  0  0  0  0  0  0  0  0
   -1.5000   -7.7942    0.0000 C   0  0  0  0  0  0  0  0  0  0  0  0
   -3.0000   -7.7942    0.0000 C   0  0  0  0  0  0  0  0  0  0  0  0
   -6.0402  -16.8913    0.0000 C   0  0  0  0  0  0  0  0  0  0  0  0
   -5.8835  -15.3995    0.0000 C   0  0  0  0  0  0  0  0  0  0  0  0
   -4.5131  -14.7894    0.0000 C   0  0  0  0  0  0  0  0  0  0  0  0
   -3.2996  -15.6711    0.0000 C   0  0  0  0  0  0  0  0  0  0  0  0
   -3.4564  -17.1628    0.0000 C   0  0  0  0  0  0  0  0  0  0  0  0
   -4.8267  -17.7729    0.0000 C   0  0  0  0  0  0  0  0  0  0  0  0
   -0.7500   -3.8971    0.0000 C   0  0  0  0  0  0  0  0  0  0  0  0
    0.7500   -3.8971    0.0000 C   0  0  0  0  0  0  0  0  0  0  0  0
    1.5000   -2.5981    0.0000 C   0  0  0  0  0  0  0  0  0  0  0  0
    0.7500   -1.2990    0.0000 C   0  0  0  0  0  0  0  0  0  0  0  0
    1.5000    0.0000    0.0000 C   0  0  0  0  0  0  0  0  0  0  0  0
    0.7500    1.2990    0.0000 C   0  0  0  0  0  0  0  0  0  0  0  0
   -0.7500    1.2990    0.0000 C   0  0  0  0  0  0  0  0  0  0  0  0
   -1.5000    0.0000    0.0000 C   0  0  0  0  0  0  0  0  0  0  0  0
   -0.7500   -1.2990    0.0000 C   0  0  0  0  0  0  0  0  0  0  0  0
   -1.5000   -2.5981    0.0000 C   0  0  0  0  0  0  0  0  0  0  0  0
    4.1398  -11.3004    0.0000 N   0  0  0  0  0  0  0  0  0  0  0  0
    3.6762   -9.8738    0.0000 S   0  0  0  0  0  6  0  0  0  0  0  0
    5.1028   -9.4103    0.0000 O   0  0  0  0  0  0  0  0  0  0  0  0
    2.2496  -10.3373    0.0000 O   0  0  0  0  0  0  0  0  0  0  0  0
  1  2  1  0
  2  3  1  0
  3  4  1  0
  4  5  1  0
  5  6  1  0
  6  1  1  0
  7  8  1  0
  8  9  1  0
  9 10  1  0
 10 11  1  0
 11  7  1  0
 12 13  2  3
 14 15  2  0
 15 16  2  0
 17 18  1  0
 18 19  1  0
 19 20  2  0
 21 22  1  0
 22 23  1  0
 23 24  1  0
 24 25  1  0
 25 26  1  0
 26 21  1  0
 27 28  2  0
 28 29  1  0
 29 30  2  0
 30 31  1  0
 31 32  2  0
 32 27  1  0
 33 34  2  0
 34 35  1  0
 35 36  2  0
 36 37  1  0
 37 38  2  0
 38 39  1  0
 39 40  2  0
 40 41  1  0
 41 42  2  0
 42 33  1  0
 41 36  1  0
 43 44  1  0
 44 45  2  0
 44 46  2  0
  5  7  1  0
  2 13  1  0
  4 44  1  0
  9 17  1  0
 11 25  1  0
 12 15  1  0
 19 30  1  0
 23 33  1  0
M  END
$$$$

     RDKit          2D

 42 48  0  0  0  0  0  0  0  0999 V2000
    3.3037   -4.2221    0.0000 C   0  0  0  0  0  0  0  0  0  0  0  0
    2.0046   -4.9721    0.0000 C   0  0  0  0  0  0  0  0  0  0  0  0
    0.8899   -3.9684    0.0000 C   0  0  0  0  0  0  0  0  0  0  0  0
    1.5000   -2.5981    0.0000 N   0  0  0  0  0  0  0  0  0  0  0  0
    2.9918   -2.7549    0.0000 C   0  0  0  0  0  0  0  0  0  0  0  0
   -0.7500   -1.2990    0.0000 C   0  0  0  0  0  0  0  0  0  0  0  0
    0.7500   -1.2990    0.0000 C   0  0  0  0  0  0  0  0  0  0  0  0
    1.5000    0.0000    0.0000 C   0  0  0  0  0  0  0  0  0  0  0  0
    0.7500    1.2990    0.0000 C   0  0  0  0  0  0  0  0  0  0  0  0
   -0.7500    1.2990    0.0000 C   0  0  0  0  0  0  0  0  0  0  0  0
   -1.5000    0.0000    0.0000 C   0  0  0  0  0  0  0  0  0  0  0  0
    3.9955   -1.6402    0.0000 C   0  0  0  0  0  0  0  0  0  0  0  0
    3.6836   -0.1729    0.0000 C   0  0  0  0  0  0  0  0  0  0  0  0
    4.9826    0.5771    0.0000 C   0  0  0  0  0  0  0  0  0  0  0  0
    6.0974   -0.4266    0.0000 C   0  0  0  0  0  0  0  0  0  0  0  0
    5.4873   -1.7969    0.0000 C   0  0  0  0  0  0  0  0  0  0  0  0
    6.4776   -6.4562    0.0000 C   0  0  0  0  0  0  0  0  0  0  0  0
    7.0877   -5.0859    0.0000 C   0  0  0  0  0  0  0  0  0  0  0  0
    5.9730   -4.0822    0.0000 C   0  0  0  0  0  0  0  0  0  0  0  0
    4.6740   -4.8322    0.0000 N   0  0  0  0  0  0  0  0  0  0  0  0
    4.9858   -6.2994    0.0000 C   0  0  0  0  0  0  0  0  0  0  0  0
   -0.5773   -4.2803    0.0000 C   0  0  0  0  0  0  0  0  0  0  0  0
   -1.1874   -5.6506    0.0000 C   0  0  0  0  0  0  0  0  0  0  0  0
   -2.6792   -5.4938    0.0000 C   0  0  0  0  0  0  0  0  0  0  0  0
   -2.9911   -4.0266    0.0000 O   0  0  0  0  0  0  0  0  0  0  0  0
   -1.6920   -3.2766    0.0000 C   0  0  0  0  0  0  0  0  0  0  0  0
    1.5000    2.5981    0.0000 C   0  0  0  0  0  0  0  0  0  0  0  0
    0.8899    3.9684    0.0000 C   0  0  0  0  0  0  0  0  0  0  0  0
    2.0046    4.9721    0.0000 C   0  0  0  0  0  0  0  0  0  0  0  0
    3.3037    4.2221    0.0000 O   0  0  0  0  0  0  0  0  0  0  0  0
    2.9918    2.7549    0.0000 C   0  0  0  0  0  0  0  0  0  0  0  0
    3.9955    1.6402    0.0000 C   0  0  0  0  0  0  0  0  0  0  0  0
    5.4627    1.9520    0.0000 C   0  0  0  0  0  0  0  0  0  0  0  0
   -3.0000    0.0000    0.0000 C   0  0  0  0  0  0  0  0  0  0  0  0
   -3.7500    1.2990    0.0000 N   0  0  0  0  0  0  0  0  0  0  0  0
   -5.2500    1.2990    0.0000 C   0  0  0  0  0  0  0  0  0  0  0  0
   -6.0000    2.5981    0.0000 O   0  0  0  0  0  0  0  0  0  0  0  0
   -2.0046   -4.9721    0.0000 C   0  0  0  0  0  0  0  0  0  0  0  0
   -0.8899   -3.9684    0.0000 C   0  0  0  0  0  0  0  0  0  0  0  0
   -1.5000   -2.5981    0.0000 C   0  0  0  0  0  0  0  0  0  0  0  0
   -2.9918   -2.7549    0.0000 O   0  0  0  0  0  0  0  0  0  0  0  0
   -3.3037   -4.2221    0.0000 C   0  0  0  0  0  0  0  0  0  0  0  0
  1  2  1  0
  2  3  1  0
  3  4  1  0
  4  5  1  0
  5  1  1  0
  6  7  1  0
  7  8  2  0
  8  9  1  0
  9 10  2  0
 10 11  1  0
 11  6  2  0
 12 13  1  0
 13 14  1  0
 14 15  1  0
 15 16  1  0
 16 12  1  0
 17 18  1  0
 18 19  1  0
 19 20  1  0
 20 21  1  0
 21 17  1  0
 22 23  1  0
 23 24  1  0
 24 25  1  0
 25 26  1  0
 26 22  1  0
 27 28  1  0
 28 29  1  0
 29 30  1  0
 30 31  1  0
 31 27  1  0
 32 33  2  0
 34 35  1  0
 35 36  1  0
 36 37  2  0
 38 39  1  0
 39 40  1  0
 40 41  1  0
 41 42  1  0
 42 38  1  0
  4  7  1  0
  5 12  1  0
  1 20  1  0
  3 22  1  0
  9 27  1  0
 11 34  1  0
  6 40  1  0
 31 32  1  0
M  END
$$$$

     RDKit          2D

  6  5  0  0  0  0  0  0  0  0999 V2000
    0.0000    0.0000    0.0000 C   0  0  0  0  0  0  0  0  0  0  0  0
    1.2990    0.7500    0.0000 C   0  0  0  0  0  0  0  0  0  0  0  0
    2.5981   -0.0000    0.0000 C   0  0  0  0  0  0  0  0  0  0  0  0
    5.1962   -0.0000    0.0000 C   0  0  0  0  0  0  0  0  0  0  0  0
    3.8971    0.7500    0.0000 C   0  0  0  0  0  0  0  0  0  0  0  0
    3.8971    2.2500    0.0000 O   0  0  0  0  0  0  0  0  0  0  0  0
  2  3  2  3
  4  5  1  0
  5  6  1  0
  1  2  1  0
  3  5  1  0
M  END
$$$$

     RDKit          2D

 43 49  0  0  0  0  0  0  0  0999 V2000
   -2.9625   -7.4676    0.0000 C   0  0  0  0  0  0  0  0  0  0  0  0
   -2.3524   -8.8379    0.0000 C   0  0  0  0  0  0  0  0  0  0  0  0
   -0.8606   -8.6811    0.0000 C   0  0  0  0  0  0  0  0  0  0  0  0
   -0.5488   -7.2139    0.0000 S   0  0  0  0  0  0  0  0  0  0  0  0
   -1.8478   -6.4639    0.0000 C   0  0  0  0  0  0  0  0  0  0  0  0
   -3.3037   -4.2221    0.0000 C   0  0  0  0  0  0  0  0  0  0  0  0
   -2.9918   -2.7549    0.0000 C   0  0  0  0  0  0  0  0  0  0  0  0
   -1.5000   -2.5981    0.0000 C   0  0  0  0  0  0  0  0  0  0  0  0
   -0.8899   -3.9684    0.0000 N   0  0  0  0  0  0  0  0  0  0  0  0
   -2.0046   -4.9721    0.0000 C   0  0  0  0  0  0  0  0  0  0  0  0
    1.5000    0.0000    0.0000 C   0  0  0  0  0  0  0  0  0  0  0  0
    0.7500   -1.2990    0.0000 C   0  0  0  0  0  0  0  0  0  0  0  0
   -0.7500   -1.2990    0.0000 N   0  0  0  0  0  0  0  0  0  0  0  0
   -1.5000    0.0000    0.0000 C   0  0  0  0  0  0  0  0  0  0  0  0
   -0.7500    1.2990    0.0000 C   0  0  0  0  0  0  0  0  0  0  0  0
    0.7500    1.2990    0.0000 C   0  0  0  0  0  0  0  0  0  0  0  0
   -4.6740   -4.8322    0.0000 C   0  0  0  0  0  0  0  0  0  0  0  0
   -5.8875   -3.9505    0.0000 O   0  0  0  0  0  0  0  0  0  0  0  0
    0.1430   -9.7958    0.0000 C   0  0  0  0  0  0  0  0  0  0  0  0
   -0.3205  -11.2224    0.0000 C   0  0  0  0  0  0  0  0  0  0  0  0
    0.6832  -12.3371    0.0000 C   0  0  0  0  0  0  0  0  0  0  0  0
    2.1504  -12.0252    0.0000 N   0  0  0  0  0  0  0  0  0  0  0  0
    2.6140  -10.5987    0.0000 C   0  0  0  0  0  0  0  0  0  0  0  0
    1.6103   -9.4839    0.0000 C   0  0  0  0  0  0  0  0  0  0  0  0
   -9.6716   -4.8143    0.0000 C   0  0  0  0  0  0  0  0  0  0  0  0
   -8.5569   -3.8106    0.0000 C   0  0  0  0  0  0  0  0  0  0  0  0
   -7.2578   -4.5606    0.0000 C   0  0  0  0  0  0  0  0  0  0  0  0
   -7.5697   -6.0278    0.0000 N   0  0  0  0  0  0  0  0  0  0  0  0
   -9.0615   -6.1846    0.0000 C   0  0  0  0  0  0  0  0  0  0  0  0
    0.5773   -4.2803    0.0000 C   0  0  0  0  0  0  0  0  0  0  0  0
    1.0409   -5.7068    0.0000 N   0  0  0  0  0  0  0  0  0  0  0  0
    2.5081   -6.0187    0.0000 C   0  0  0  0  0  0  0  0  0  0  0  0
    3.5118   -4.9040    0.0000 O   0  0  0  0  0  0  0  0  0  0  0  0
    2.9716   -7.4453    0.0000 C   0  0  0  0  0  0  0  0  0  0  0  0
    4.3982   -7.9088    0.0000 C   0  0  0  0  0  0  0  0  0  0  0  0
    4.3982   -9.4088    0.0000 C   0  0  0  0  0  0  0  0  0  0  0  0
    2.9716   -9.8724    0.0000 N   0  0  0  0  0  0  0  0  0  0  0  0
    2.0899   -8.6588    0.0000 C   0  0  0  0  0  0  0  0  0  0  0  0
  -11.1388   -4.5025    0.0000 C   0  0  0  0  0  0  0  0  0  0  0  0
  -12.2535   -5.5061    0.0000 C   0  0  0  0  0  0  0  0  0  0  0  0
  -13.5525   -4.7561    0.0000 C   0  0  0  0  0  0  0  0  0  0  0  0
  -13.2407   -3.2889    0.0000 N   0  0  0  0  0  0  0  0  0  0  0  0
  -11.7489   -3.1321    0.0000 C   0  0  0  0  0  0  0  0  0  0  0  0
  1  2  1  0
  2  3  2  0
  3  4  1  0
  4  5  1  0
  5  1  2  0
  6  7  1  0
  7  8  1  0
  8  9  1  0
  9 10  1  0
 10  6  1  0
 11 12  2  0
 12 13  1  0
 13 14  1  0
 14 15  2  0
 15 16  1  0
 16 11  1  0
 17 18  1  0
 19 20  2  0
 20 21  1  0
 21 22  2  0
 22 23  1  0
 23 24  2  0
 24 19  1  0
 25 26  1  0
 26 27  1  0
 27 28  1  0
 28 29  1  0
 29 25  1  0
 30 31  1  0
 31 32  1  0
 32 33  2  0
 34 35  1  0
 35 36  1  0
 36 37  1  0
 37 38  1  0
 38 34  1  0
 39 40  1  0
 40 41  1  0
 41 42  1  0
 42 43  1  0
 43 39  1  0
  5 10  1  0
  3 19  1  0
  8 13  1  0
  6 17  1  0
  9 30  1  0
 18 27  1  0
 25 39  1  0
 32 34  1  0
M  END
$$$$

     RDKit          2D

 40 45  0  0  0  0  0  0  0  0999 V2000
    7.5583   -3.1471    0.0000 C   0  0  0  0  0  0  0  0  0  0  0  0
    6.1317   -2.6836    0.0000 C   0  0  0  0  0  0  0  0  0  0  0  0
    5.2500   -3.8971    0.0000 C   0  0  0  0  0  0  0  0  0  0  0  0
    6.1317   -5.1106    0.0000 N   0  0  0  0  0  0  0  0  0  0  0  0
    7.5583   -4.6471    0.0000 C   0  0  0  0  0  0  0  0  0  0  0  0
    7.8901   -1.0519    0.0000 C   0  0  0  0  0  0  0  0  0  0  0  0
    8.7718   -2.2654    0.0000 C   0  0  0  0  0  0  0  0  0  0  0  0
    9.6535   -3.4790    0.0000 C   0  0  0  0  0  0  0  0  0  0  0  0
    9.9853   -1.3838    0.0000 O   0  0  0  0  0  0  0  0  0  0  0  0
   11.0801   -6.2788    0.0000 C   0  0  0  0  0  0  0  0  0  0  0  0
   10.1984   -5.0653    0.0000 C   0  0  0  0  0  0  0  0  0  0  0  0
    8.7718   -5.5288    0.0000 C   0  0  0  0  0  0  0  0  0  0  0  0
    8.7718   -7.0288    0.0000 O   0  0  0  0  0  0  0  0  0  0  0  0
   10.1984   -7.4923    0.0000 C   0  0  0  0  0  0  0  0  0  0  0  0
    3.7500   -3.8971    0.0000 C   0  0  0  0  0  0  0  0  0  0  0  0
    3.0000   -2.5981    0.0000 N   0  0  0  0  0  0  0  0  0  0  0  0
    1.5000   -2.5981    0.0000 C   0  0  0  0  0  0  0  0  0  0  0  0
    0.7500   -3.8971    0.0000 O   0  0  0  0  0  0  0  0  0  0  0  0
   -1.5000    0.0000    0.0000 C   0  0  0  0  0  0  0  0  0  0  0  0
   -0.7500   -1.2990    0.0000 C   0  0  0  0  0  0  0  0  0  0  0  0
    0.7500   -1.2990    0.0000 C   0  0  0  0  0  0  0  0  0  0  0  0
    1.5000    0.0000    0.0000 N   0  0  0  0  0  0  0  0  0  0  0  0
    0.7500    1.2990    0.0000 C   0  0  0  0  0  0  0  0  0  0  0  0
   -0.7500    1.2990    0.0000 C   0  0  0  0  0  0  0  0  0  0  0  0
    3.3037    4.2221    0.0000 C   0  0  0  0  0  0  0  0  0  0  0  0
    2.0046    4.9721    0.0000 C   0  0  0  0  0  0  0  0  0  0  0  0
    0.8899    3.9684    0.0000 S   0  0  0  0  0  0  0  0  0  0  0  0
    1.5000    2.5981    0.0000 C   0  0  0  0  0  0  0  0  0  0  0  0
    2.9918    2.7549    0.0000 N   0  0  0  0  0  0  0  0  0  0  0  0
   -5.3083   -0.7500    0.0000 C   0  0  0  0  0  0  0  0  0  0  0  0
   -3.8817   -1.2135    0.0000 C   0  0  0  0  0  0  0  0  0  0  0  0
   -3.0000    0.0000    0.0000 C   0  0  0  0  0  0  0  0  0  0  0  0
   -3.8817    1.2135    0.0000 S   0  0  0  0  0  0  0  0  0  0  0  0
   -5.3083    0.7500    0.0000 C   0  0  0  0  0  0  0  0  0  0  0  0
    5.6682   -6.5372    0.0000 N   0  0  0  0  0  0  0  0  0  0  0  0
   -2.9918   -2.7549    0.0000 C   0  0  0  0  0  0  0  0  0  0  0  0
   -3.3037   -4.2221    0.0000 C   0  0  0  0  0  0  0  0  0  0  0  0
   -2.0046   -4.9721    0.0000 C   0  0  0  0  0  0  0  0  0  0  0  0
   -0.8899   -3.9684    0.0000 N   0  0  0  0  0  0  0  0  0  0  0  0
   -1.5000   -2.5981    0.0000 C   0  0  0  0  0  0  0  0  0  0  0  0
  1  2  1  0
  2  3  1  0
  3  4  1  0
  4  5  1  0
  5  1  1  0
  6  7  1  0
  7  8  1  0
  7  9  1  0
 10 11  1  0
 11 12  1  0
 12 13  1  0
 13 14  1  0
 14 10  1  0
 15 16  1  0
 16 17  1  0
 17 18  2  0
 19 20  2  0
 20 21  1  0
 21 22  2  0
 22 23  1  0
 23 24  2  0
 24 19  1  0
 25 26  2  0
 26 27  1  0
 27 28  1  0
 28 29  2  0
 29 25  1  0
 30 31  1  0
 31 32  2  0
 32 33  1  0
 33 34  1  0
 34 30  2  0
 36 37  1  0
 37 38  1  0
 38 39  1  0
 39 40  1  0
 40 36  1  0
  1  7  1  0
  5 12  1  0
  3 15  1  0
  4 35  1  0
 17 21  1  0
 23 28  1  0
 19 32  1  0
 20 40  1  0
M  END
$$$$

     RDKit          2D

 51 58  0  0  0  0  0  0  0  0999 V2000
   -0.7500   -1.2990    0.0000 C   0  0  0  0  0  0  0  0  0  0  0  0
    0.7500   -1.2990    0.0000 C   0  0  0  0  0  0  0  0  0  0  0  0
    1.5000    0.0000    0.0000 C   0  0  0  0  0  0  0  0  0  0  0  0
    0.7500    1.2990    0.0000 N   0  0  0  0  0  0  0  0  0  0  0  0
   -0.7500    1.2990    0.0000 C   0  0  0  0  0  0  0  0  0  0  0  0
   -1.5000    0.0000    0.0000 C   0  0  0  0  0  0  0  0  0  0  0  0
    3.0000    0.0000    0.0000 C   0  0  0  0  0  0  0  0  0  0  0  0
    3.7500    1.2990    0.0000 N   0  0  0  0  0  0  0  0  0  0  0  0
    3.0000    2.5981    0.0000 C   0  0  0  0  0  0  0  0  0  0  0  0
    3.7500    3.8971    0.0000 C   0  0  0  0  0  0  0  0  0  0  0  0
    1.5000    2.5981    0.0000 O   0  0  0  0  0  0  0  0  0  0  0  0
   -2.9918   -2.7549    0.0000 C   0  0  0  0  0  0  0  0  0  0  0  0
   -3.3037   -4.2221    0.0000 C   0  0  0  0  0  0  0  0  0  0  0  0
   -2.0046   -4.9721    0.0000 C   0  0  0  0  0  0  0  0  0  0  0  0
   -0.8899   -3.9684    0.0000 O   0  0  0  0  0  0  0  0  0  0  0  0
   -1.5000   -2.5981    0.0000 C   0  0  0  0  0  0  0  0  0  0  0  0
   -3.9955   -1.6402    0.0000 C   0  0  0  0  0  0  0  0  0  0  0  0
   -3.6836   -0.1729    0.0000 C   0  0  0  0  0  0  0  0  0  0  0  0
   -4.9826    0.5771    0.0000 C   0  0  0  0  0  0  0  0  0  0  0  0
   -6.0974   -0.4266    0.0000 O   0  0  0  0  0  0  0  0  0  0  0  0
   -5.4873   -1.7969    0.0000 C   0  0  0  0  0  0  0  0  0  0  0  0
    3.7500   -3.8971    0.0000 C   0  0  0  0  0  0  0  0  0  0  0  0
    3.0000   -2.5981    0.0000 C   0  0  0  0  0  0  0  0  0  0  0  0
    1.5000   -2.5981    0.0000 C   0  0  0  0  0  0  0  0  0  0  0  0
    0.7500   -3.8971    0.0000 O   0  0  0  0  0  0  0  0  0  0  0  0
    1.5000   -5.1962    0.0000 C   0  0  0  0  0  0  0  0  0  0  0  0
    3.0000   -5.1962    0.0000 C   0  0  0  0  0  0  0  0  0  0  0  0
    4.2546   -8.8692    0.0000 C   0  0  0  0  0  0  0  0  0  0  0  0
    3.1399   -7.8655    0.0000 C   0  0  0  0  0  0  0  0  0  0  0  0
    3.7500   -6.4952    0.0000 C   0  0  0  0  0  0  0  0  0  0  0  0
    5.2418   -6.6520    0.0000 N   0  0  0  0  0  0  0  0  0  0  0  0
    5.5537   -8.1192    0.0000 C   0  0  0  0  0  0  0  0  0  0  0  0
    5.8672  -11.1028    0.0000 O   0  0  0  0  0  0  0  0  0  0  0  0
    7.0808  -10.2211    0.0000 C   0  0  0  0  0  0  0  0  0  0  0  0
    8.4511  -10.8312    0.0000 N   0  0  0  0  0  0  0  0  0  0  0  0
    9.6646   -9.9495    0.0000 C   0  0  0  0  0  0  0  0  0  0  0  0
    9.5078   -8.4577    0.0000 C   0  0  0  0  0  0  0  0  0  0  0  0
    8.1375   -7.8476    0.0000 C   0  0  0  0  0  0  0  0  0  0  0  0
    6.9240   -8.7293    0.0000 N   0  0  0  0  0  0  0  0  0  0  0  0
    3.7500   -1.2990    0.0000 C   0  0  0  0  0  0  0  0  0  0  0  0
    3.0000    0.0000    0.0000 C   0  0  0  0  0  0  0  0  0  0  0  0
    3.7500    1.2990    0.0000 N   0  0  0  0  0  0  0  0  0  0  0  0
    5.2500    1.2990    0.0000 C   0  0  0  0  0  0  0  0  0  0  0  0
    6.0000   -0.0000    0.0000 C   0  0  0  0  0  0  0  0  0  0  0  0
    5.2500   -1.2990    0.0000 C   0  0  0  0  0  0  0  0  0  0  0  0
   -0.7500    3.8971    0.0000 C   0  0  0  0  0  0  0  0  0  0  0  0
   -1.5000    2.5981    0.0000 C   0  0  0  0  0  0  0  0  0  0  0  0
   -3.0000    2.5981    0.0000 C   0  0  0  0  0  0  0  0  0  0  0  0
   -3.7500    3.8971    0.0000 C   0  0  0  0  0  0  0  0  0  0  0  0
   -3.0000    5.1962    0.0000 C   0  0  0  0  0  0  0  0  0  0  0  0
   -1.5000    5.1962    0.0000 C   0  0  0  0  0  0  0  0  0  0  0  0
  1  2  1  0
  2  3  2  0
  3  4  1  0
  4  5  2  0
  5  6  1  0
  6  1  2  0
  7  8  1  0
  8  9  1  0
  9 10  1  0
  9 11  2  0
 12 13  1  0
 13 14  1  0
 14 15  1  0
 15 16  1  0
 16 12  1  0
 17 18  1  0
 18 19  1  0
 19 20  1  0
 20 21  1  0
 21 17  1  0
 22 23  1  0
 23 24  1  0
 24 25  1  0
 25 26  1  0
 26 27  1  0
 27 22  1  0
 28 29  1  0
 29 30  1  0
 30 31  1  0
 31 32  1  0
 32 28  1  0
 33 34  2  0
 34 35  1  0
 35 36  2  0
 36 37  1  0
 37 38  2  0
 38 39  1  0
 39 34  1  0
 40 41  2  0
 41 42  1  0
 42 43  1  0
 43 44  2  0
 44 45  1  0
 45 40  1  0
 46 47  2  0
 47 48  1  0
 48 49  2  0
 49 50  1  0
 50 51  2  0
 51 46  1  0
  3  7  1  0
  1 16  1  0
  2 24  1  0
  5 47  1  0
 12 17  1  0
 27 30  1  0
 23 40  1  0
 32 39  1  0
M  END
$$$$

     RDKit          2D

 36 41  0  0  0  0  0  0  0  0999 V2000
    2.0046   -4.9721    0.0000 C   0  0  0  0  0  0  0  0  0  0  0  0
    0.8899   -3.9684    0.0000 C   0  0  0  0  0  0  0  0  0  0  0  0
    1.5000   -2.5981    0.0000 C   0  0  0  0  0  0  0  0  0  0  0  0
    2.9918   -2.7549    0.0000 N   0  0  0  0  0  0  0  0  0  0  0  0
    3.3037   -4.2221    0.0000 C   0  0  0  0  0  0  0  0  0  0  0  0
    2.9625   -7.4676    0.0000 C   0  0  0  0  0  0  0  0  0  0  0  0
    2.3524   -8.8379    0.0000 C   0  0  0  0  0  0  0  0  0  0  0  0
    0.8606   -8.6811    0.0000 C   0  0  0  0  0  0  0  0  0  0  0  0
    0.5488   -7.2139    0.0000 N   0  0  0  0  0  0  0  0  0  0  0  0
    1.8478   -6.4639    0.0000 C   0  0  0  0  0  0  0  0  0  0  0  0
    4.4298   -7.1557    0.0000 C   0  0  0  0  0  0  0  0  0  0  0  0
    5.4335   -8.2704    0.0000 S   0  0  0  0  0  0  0  0  0  0  0  0
    1.5000    0.0000    0.0000 C   0  0  0  0  0  0  0  0  0  0  0  0
    0.7500   -1.2990    0.0000 C   0  0  0  0  0  0  0  0  0  0  0  0
   -0.7500   -1.2990    0.0000 C   0  0  0  0  0  0  0  0  0  0  0  0
   -1.5000    0.0000    0.0000 O   0  0  0  0  0  0  0  0  0  0  0  0
   -0.7500    1.2990    0.0000 C   0  0  0  0  0  0  0  0  0  0  0  0
    0.7500    1.2990    0.0000 C   0  0  0  0  0  0  0  0  0  0  0  0
   -3.2353   -6.3501    0.0000 C   0  0  0  0  0  0  0  0  0  0  0  0
   -2.6252   -4.9798    0.0000 C   0  0  0  0  0  0  0  0  0  0  0  0
   -1.1334   -5.1365    0.0000 C   0  0  0  0  0  0  0  0  0  0  0  0
   -0.8215   -6.6038    0.0000 N   0  0  0  0  0  0  0  0  0  0  0  0
   -2.1206   -7.3538    0.0000 C   0  0  0  0  0  0  0  0  0  0  0  0
    4.6740   -4.8322    0.0000 C   0  0  0  0  0  0  0  0  0  0  0  0
    5.9730   -4.0822    0.0000 C   0  0  0  0  0  0  0  0  0  0  0  0
    7.0877   -5.0859    0.0000 C   0  0  0  0  0  0  0  0  0  0  0  0
    6.4776   -6.4562    0.0000 N   0  0  0  0  0  0  0  0  0  0  0  0
    4.9858   -6.2994    0.0000 C   0  0  0  0  0  0  0  0  0  0  0  0
   -0.1297   -4.0218    0.0000 O   0  0  0  0  0  0  0  0  0  0  0  0
   -0.1430   -9.7958    0.0000 C   0  0  0  0  0  0  0  0  0  0  0  0
    8.5549   -4.7740    0.0000 C   0  0  0  0  0  0  0  0  0  0  0  0
    9.5586   -5.8887    0.0000 C   0  0  0  0  0  0  0  0  0  0  0  0
   11.0259   -5.5769    0.0000 C   0  0  0  0  0  0  0  0  0  0  0  0
   11.4894   -4.1503    0.0000 O   0  0  0  0  0  0  0  0  0  0  0  0
   10.4857   -3.0356    0.0000 C   0  0  0  0  0  0  0  0  0  0  0  0
    9.0185   -3.3474    0.0000 C   0  0  0  0  0  0  0  0  0  0  0  0
  1  2  1  0
  2  3  1  0
  3  4  1  0
  4  5  1  0
  5  1  1  0
  6  7  1  0
  7  8  1  0
  8  9  1  0
  9 10  1  0
 10  6  1  0
 11 12  1  0
 13 14  1  0
 14 15  1  0
 15 16  1  0
 16 17  1  0
 17 18  1  0
 18 13  1  0
 19 20  1  0
 20 21  1  0
 21 22  1  0
 22 23  1  0
 23 19  1  0
 24 25  1  0
 25 26  1  0
 26 27  1  0
 27 28  1  0
 28 24  1  0
 31 32  1  0
 32 33  1  0
 33 34  1  0
 34 35  1  0
 35 36  1  0
 36 31  1  0
  1 10  1  0
  3 14  1  0
  5 24  1  0
  6 11  1  0
  9 22  1  0
  8 30  1  0
 21 29  1  0
 26 31  1  0
M  END
$$$$

     RDKit          2D

 39 43  0  0  0  0  0  0  0  0999 V2000
    3.7500    1.2990    0.0000 C   0  0  0  0  0  0  0  0  0  0  0  0
    3.0000    0.0000    0.0000 C   0  0  0  0  0  0  0  0  0  0  0  0
    6.0000    2.5981    0.0000 C   0  0  0  0  0  0  0  0  0  0  0  0
    5.2500    1.2990    0.0000 C   0  0  0  0  0  0  0  0  0  0  0  0
   -0.7500   -1.2990    0.0000 C   0  0  0  0  0  0  0  0  0  0  0  0
    0.7500   -1.2990    0.0000 C   0  0  0  0  0  0  0  0  0  0  0  0
    1.5000    0.0000    0.0000 C   0  0  0  0  0  0  0  0  0  0  0  0
    0.7500    1.2990    0.0000 O   0  0  0  0  0  0  0  0  0  0  0  0
   -0.7500    1.2990    0.0000 C   0  0  0  0  0  0  0  0  0  0  0  0
   -1.5000    0.0000    0.0000 C   0  0  0  0  0  0  0  0  0  0  0  0
   -1.5000    2.5981    0.0000 C   0  0  0  0  0  0  0  0  0  0  0  0
   -0.7500    3.8971    0.0000 N   0  0  0  0  0  0  0  0  0  0  0  0
   -1.5000    5.1962    0.0000 C   0  0  0  0  0  0  0  0  0  0  0  0
   -3.0000    5.1962    0.0000 O   0  0  0  0  0  0  0  0  0  0  0  0
    1.0537    8.1192    0.0000 C   0  0  0  0  0  0  0  0  0  0  0  0
   -0.2454    8.8692    0.0000 C   0  0  0  0  0  0  0  0  0  0  0  0
   -1.3601    7.8655    0.0000 C   0  0  0  0  0  0  0  0  0  0  0  0
   -0.7500    6.4952    0.0000 N   0  0  0  0  0  0  0  0  0  0  0  0
    0.7418    6.6520    0.0000 C   0  0  0  0  0  0  0  0  0  0  0  0
   -1.5000   -2.5981    0.0000 C   0  0  0  0  0  0  0  0  0  0  0  0
   -0.7500   -3.8971    0.0000 C   0  0  0  0  0  0  0  0  0  0  0  0
   -1.5000   -5.1962    0.0000 C   0  0  0  0  0  0  0  0  0  0  0  0
   -3.0000   -5.1962    0.0000 N   0  0  0  0  0  0  0  0  0  0  0  0
   -3.7500   -3.8971    0.0000 C   0  0  0  0  0  0  0  0  0  0  0  0
   -3.0000   -2.5981    0.0000 C   0  0  0  0  0  0  0  0  0  0  0  0
   -4.2546    1.0750    0.0000 C   0  0  0  0  0  0  0  0  0  0  0  0
   -3.1399    0.0713    0.0000 C   0  0  0  0  0  0  0  0  0  0  0  0
   -3.7500   -1.2990    0.0000 C   0  0  0  0  0  0  0  0  0  0  0  0
   -5.2418   -1.1422    0.0000 S   0  0  0  0  0  0  0  0  0  0  0  0
   -5.5537    0.3250    0.0000 C   0  0  0  0  0  0  0  0  0  0  0  0
    1.5000   -2.5981    0.0000 C   0  0  0  0  0  0  0  0  0  0  0  0
    0.7500   -3.8971    0.0000 C   0  0  0  0  0  0  0  0  0  0  0  0
    1.5000   -5.1962    0.0000 C   0  0  0  0  0  0  0  0  0  0  0  0
    3.0000   -5.1962    0.0000 O   0  0  0  0  0  0  0  0  0  0  0  0
    3.7500   -3.8971    0.0000 C   0  0  0  0  0  0  0  0  0  0  0  0
    3.0000   -2.5981    0.0000 C   0  0  0  0  0  0  0  0  0  0  0  0
   -5.2500   -3.8971    0.0000 N   0  0  0  0  0  0  0  0  0  0  0  0
   -6.0000   -5.1962    0.0000 C   0  0  0  0  0  0  0  0  0  0  0  0
   -7.5000   -5.1962    0.0000 O   0  0  0  0  0  0  0  0  0  0  0  0
  1  2  2  3
  3  4  1  0
  5  6  1  0
  6  7  1  0
  7  8  1  0
  8  9  1  0
  9 10  1  0
 10  5  1  0
 11 12  1  0
 12 13  1  0
 13 14  2  0
 15 16  1  0
 16 17  1  0
 17 18  1  0
 18 19  1  0
 19 15  1  0
 20 21  2  0
 21 22  1  0
 22 23  2  0
 23 24  1  0
 24 25  2  0
 25 20  1  0
 26 27  1  0
 27 28  2  0
 28 29  1  0
 29 30  1  0
 30 26  2  0
 31 32  1  0
 32 33  1  0
 33 34  1  0
 34 35  1  0
 35 36  1  0
 36 31  1  0
 37 38  1  0
 38 39  2  0
  1  4  1  0
  2  7  1  0
  9 11  1  0
  5 20  1  0
  6 31  1  0
 13 18  1  0
 25 28  1  0
 24 37  1  0
M  END
$$$$
