
     RDKit          2D

 42 48  0  0  0  0  0  0  0  0999 V2000
    0.7500   -1.2990    0.0000 C   0  0  0  0  0  0  0  0  0  0  0  0
    1.5000    0.0000    0.0000 C   0  0  0  0  0  0  0  0  0  0  0  0
    0.7500    1.2990    0.0000 N   0  0  0  0  0  0  0  0  0  0  0  0
   -0.7500    1.2990    0.0000 C   0  0  0  0  0  0  0  0  0  0  0  0
   -1.5000    0.0000    0.0000 C   0  0  0  0  0  0  0  0  0  0  0  0
   -0.7500   -1.2990    0.0000 N   0  0  0  0  0  0  0  0  0  0  0  0
   -2.9918   -2.7549    0.0000 C   0  0  0  0  0  0  0  0  0  0  0  0
   -3.3037   -4.2221    0.0000 C   0  0  0  0  0  0  0  0  0  0  0  0
   -2.0046   -4.9721    0.0000 C   0  0  0  0  0  0  0  0  0  0  0  0
   -0.8899   -3.9684    0.0000 O   0  0  0  0  0  0  0  0  0  0  0  0
   -1.5000   -2.5981    0.0000 C   0  0  0  0  0  0  0  0  0  0  0  0
   -3.0613   -7.3456    0.0000 C   0  0  0  0  0  0  0  0  0  0  0  0
   -2.9046   -8.8373    0.0000 C   0  0  0  0  0  0  0  0  0  0  0  0
   -1.5342   -9.4474    0.0000 N   0  0  0  0  0  0  0  0  0  0  0  0
   -0.3207   -8.5658    0.0000 C   0  0  0  0  0  0  0  0  0  0  0  0
   -0.4775   -7.0740    0.0000 C   0  0  0  0  0  0  0  0  0  0  0  0
   -1.8478   -6.4639    0.0000 N   0  0  0  0  0  0  0  0  0  0  0  0
   -4.4317   -6.7354    0.0000 C   0  0  0  0  0  0  0  0  0  0  0  0
   -5.6452   -7.6171    0.0000 C   0  0  0  0  0  0  0  0  0  0  0  0
   -7.0155   -7.0070    0.0000 N   0  0  0  0  0  0  0  0  0  0  0  0
   -7.1723   -5.5152    0.0000 C   0  0  0  0  0  0  0  0  0  0  0  0
   -5.9588   -4.6336    0.0000 C   0  0  0  0  0  0  0  0  0  0  0  0
   -4.5885   -5.2437    0.0000 N   0  0  0  0  0  0  0  0  0  0  0  0
   -1.3774  -10.9392    0.0000 N   0  0  0  0  0  0  0  0  0  0  0  0
    2.0046   -4.9721    0.0000 C   0  0  0  0  0  0  0  0  0  0  0  0
    3.3037   -4.2221    0.0000 C   0  0  0  0  0  0  0  0  0  0  0  0
    2.9918   -2.7549    0.0000 N   0  0  0  0  0  0  0  0  0  0  0  0
    1.5000   -2.5981    0.0000 C   0  0  0  0  0  0  0  0  0  0  0  0
    0.8899   -3.9684    0.0000 N   0  0  0  0  0  0  0  0  0  0  0  0
   -3.4169   -9.4480    0.0000 N   0  0  0  0  0  0  0  0  0  0  0  0
   -6.5451  -11.4824    0.0000 C   0  0  0  0  0  0  0  0  0  0  0  0
   -6.7019   -9.9906    0.0000 C   0  0  0  0  0  0  0  0  0  0  0  0
   -5.4884   -9.1089    0.0000 C   0  0  0  0  0  0  0  0  0  0  0  0
   -4.1181   -9.7190    0.0000 N   0  0  0  0  0  0  0  0  0  0  0  0
   -3.9613  -11.2108    0.0000 C   0  0  0  0  0  0  0  0  0  0  0  0
   -5.1748  -12.0925    0.0000 C   0  0  0  0  0  0  0  0  0  0  0  0
    2.5465  -14.4724    0.0000 O   0  0  0  0  0  0  0  0  0  0  0  0
    1.7965  -13.1733    0.0000 C   0  0  0  0  0  0  0  0  0  0  0  0
    2.4066  -11.8030    0.0000 N   0  0  0  0  0  0  0  0  0  0  0  0
    1.2919  -10.7993    0.0000 C   0  0  0  0  0  0  0  0  0  0  0  0
   -0.0071  -11.5493    0.0000 C   0  0  0  0  0  0  0  0  0  0  0  0
    0.3047  -13.0165    0.0000 O   0  0  0  0  0  0  0  0  0  0  0  0
  1  2  1  0
  2  3  1  0
  3  4  1  0
  4  5  1  0
  5  6  1  0
  6  1  1  0
  7  8  1  0
  8  9  2  0
  9 10  1  0
 10 11  1  0
 11  7  2  0
 12 13  1  0
 13 14  1  0
 14 15  1  0
 15 16  1  0
 16 17  1  0
 17 12  1  0
 18 19  1  0
 19 20  1  0
 20 21  1  0
 21 22  1  0
 22 23  1  0
 23 18  1  0
 25 26  2  0
 26 27  1  0
 27 28  1  0
 28 29  2  0
 29 25  1  0
 31 32  2  0
 32 33  1  0
 33 34  2  0
 34 35  1  0
 35 36  2  0
 36 31  1  0
 37 38  2  0
 38 39  1  0
 39 40  1  0
 40 41  1  0
 41 42  1  0
 42 38  1  0
  6 11  1  0
  1 28  1  0
  9 17  1  0
 12 18  1  0
 14 24  1  0
 13 30  1  0
 19 33  1  0
 24 41  1  0
M  END
$$$$

     RDKit          2D

 29 32  0  0  0  0  0  0  0  0999 V2000
    1.5000   -2.5981    0.0000 O   0  0  0  0  0  0  0  0  0  0  0  0
    0.2454   -6.2711    0.0000 C   0  0  0  0  0  0  0  0  0  0  0  0
   -1.0537   -5.5211    0.0000 C   0  0  0  0  0  0  0  0  0  0  0  0
   -0.7418   -4.0539    0.0000 N   0  0  0  0  0  0  0  0  0  0  0  0
    0.7500   -3.8971    0.0000 N   0  0  0  0  0  0  0  0  0  0  0  0
    1.3601   -5.2674    0.0000 C   0  0  0  0  0  0  0  0  0  0  0  0
    0.4022   -7.7629    0.0000 C   0  0  0  0  0  0  0  0  0  0  0  0
   -0.8113   -8.6446    0.0000 N   0  0  0  0  0  0  0  0  0  0  0  0
   -1.9092  -13.8094    0.0000 O   0  0  0  0  0  0  0  0  0  0  0  0
   -1.1592  -12.5104    0.0000 C   0  0  0  0  0  0  0  0  0  0  0  0
    0.3326  -12.3536    0.0000 N   0  0  0  0  0  0  0  0  0  0  0  0
    0.6445  -10.8864    0.0000 C   0  0  0  0  0  0  0  0  0  0  0  0
   -0.6546  -10.1364    0.0000 C   0  0  0  0  0  0  0  0  0  0  0  0
   -1.7693  -11.1401    0.0000 O   0  0  0  0  0  0  0  0  0  0  0  0
    1.3363  -13.4683    0.0000 N   0  0  0  0  0  0  0  0  0  0  0  0
    2.8035  -13.1564    0.0000 O   0  0  0  0  0  0  0  0  0  0  0  0
    0.7500   -1.2990    0.0000 C   0  0  0  0  0  0  0  0  0  0  0  0
    1.5000    0.0000    0.0000 C   0  0  0  0  0  0  0  0  0  0  0  0
    0.7500    1.2990    0.0000 N   0  0  0  0  0  0  0  0  0  0  0  0
   -0.7500    1.2990    0.0000 C   0  0  0  0  0  0  0  0  0  0  0  0
   -1.5000    0.0000    0.0000 C   0  0  0  0  0  0  0  0  0  0  0  0
   -0.7500   -1.2990    0.0000 N   0  0  0  0  0  0  0  0  0  0  0  0
    1.5000    2.5981    0.0000 N   0  0  0  0  0  0  0  0  0  0  0  0
    3.3437  -15.6977    0.0000 C   0  0  0  0  0  0  0  0  0  0  0  0
    3.8072  -14.2712    0.0000 C   0  0  0  0  0  0  0  0  0  0  0  0
    5.2745  -13.9593    0.0000 N   0  0  0  0  0  0  0  0  0  0  0  0
    6.2781  -15.0740    0.0000 C   0  0  0  0  0  0  0  0  0  0  0  0
    5.8146  -16.5006    0.0000 C   0  0  0  0  0  0  0  0  0  0  0  0
    4.3474  -16.8125    0.0000 N   0  0  0  0  0  0  0  0  0  0  0  0
  2  3  1  0
  3  4  2  0
  4  5  1  0
  5  6  1  0
  6  2  2  0
  7  8  2  3
  9 10  2  0
 10 11  1  0
 11 12  1  0
 12 13  1  0
 13 14  1  0
 14 10  1  0
 17 18  1  0
 18 19  1  0
 19 20  1  0
 20 21  1  0
 21 22  1  0
 22 17  1  0
 24 25  1  0
 25 26  1  0
 26 27  1  0
 27 28  1  0
 28 29  1  0
 29 24  1  0
  1  5  1  0
  1 17  1  0
  2  7  1  0
  8 13  1  0
 11 15  1  0
 15 16  1  0
 16 25  1  0
 19 23  1  0
M  END
$$$$

     RDKit          2D

 31 35  0  0  0  0  0  0  0  0999 V2000
    8.5549   -7.3721    0.0000 N   0  0  0  0  0  0  0  0  0  0  0  0
    9.0185   -5.9455    0.0000 N   0  0  0  0  0  0  0  0  0  0  0  0
    4.9858   -8.8975    0.0000 C   0  0  0  0  0  0  0  0  0  0  0  0
    6.4776   -9.0543    0.0000 C   0  0  0  0  0  0  0  0  0  0  0  0
    7.0877   -7.6840    0.0000 C   0  0  0  0  0  0  0  0  0  0  0  0
    5.9730   -6.6803    0.0000 O   0  0  0  0  0  0  0  0  0  0  0  0
    4.6740   -7.4303    0.0000 C   0  0  0  0  0  0  0  0  0  0  0  0
    3.3037   -6.8202    0.0000 C   0  0  0  0  0  0  0  0  0  0  0  0
    2.0046   -7.5702    0.0000 C   0  0  0  0  0  0  0  0  0  0  0  0
    0.8899   -6.5665    0.0000 N   0  0  0  0  0  0  0  0  0  0  0  0
    1.5000   -5.1962    0.0000 N   0  0  0  0  0  0  0  0  0  0  0  0
    2.9918   -5.3529    0.0000 C   0  0  0  0  0  0  0  0  0  0  0  0
    0.7500   -3.8971    0.0000 N   0  0  0  0  0  0  0  0  0  0  0  0
    1.5000   -2.5981    0.0000 C   0  0  0  0  0  0  0  0  0  0  0  0
    0.7500   -1.2990    0.0000 C   0  0  0  0  0  0  0  0  0  0  0  0
    1.5000    0.0000    0.0000 C   0  0  0  0  0  0  0  0  0  0  0  0
    0.7500    1.2990    0.0000 N   0  0  0  0  0  0  0  0  0  0  0  0
   -0.7500    1.2990    0.0000 C   0  0  0  0  0  0  0  0  0  0  0  0
   -1.5000    0.0000    0.0000 C   0  0  0  0  0  0  0  0  0  0  0  0
   -0.7500   -1.2990    0.0000 N   0  0  0  0  0  0  0  0  0  0  0  0
   -4.6740   -4.8322    0.0000 O   0  0  0  0  0  0  0  0  0  0  0  0
   -3.3037   -4.2221    0.0000 C   0  0  0  0  0  0  0  0  0  0  0  0
   -2.0046   -4.9721    0.0000 N   0  0  0  0  0  0  0  0  0  0  0  0
   -0.8899   -3.9684    0.0000 C   0  0  0  0  0  0  0  0  0  0  0  0
   -1.5000   -2.5981    0.0000 C   0  0  0  0  0  0  0  0  0  0  0  0
   -2.9918   -2.7549    0.0000 O   0  0  0  0  0  0  0  0  0  0  0  0
    9.2468   -9.9540    0.0000 C   0  0  0  0  0  0  0  0  0  0  0  0
   10.5458  -10.7040    0.0000 C   0  0  0  0  0  0  0  0  0  0  0  0
   11.6605   -9.7003    0.0000 C   0  0  0  0  0  0  0  0  0  0  0  0
   11.0504   -8.3300    0.0000 O   0  0  0  0  0  0  0  0  0  0  0  0
    9.5586   -8.4868    0.0000 C   0  0  0  0  0  0  0  0  0  0  0  0
  3  4  1  0
  4  5  2  0
  5  6  1  0
  6  7  1  0
  7  3  2  0
  8  9  1  0
  9 10  2  0
 10 11  1  0
 11 12  1  0
 12  8  2  0
 15 16  1  0
 16 17  1  0
 17 18  1  0
 18 19  1  0
 19 20  1  0
 20 15  1  0
 21 22  2  0
 22 23  1  0
 23 24  1  0
 24 25  1  0
 25 26  1  0
 26 22  1  0
 27 28  1  0
 28 29  2  0
 29 30  1  0
 30 31  1  0
 31 27  2  0
  1  2  1  0
  1  5  1  0
  1 31  1  0
  7  8  1  0
 11 13  1  0
 13 14  1  0
 14 15  1  0
 20 25  1  0
M  END
$$$$

     RDKit          2D

 31 35  0  0  0  0  0  0  0  0999 V2000
    1.2760    0.0000    0.0000 C   0  0  0  0  0  0  0  0  0  0  0  0
    0.3943    1.2135    0.0000 C   0  0  0  0  0  0  0  0  0  0  0  0
   -1.0323    0.7500    0.0000 C   0  0  0  0  0  0  0  0  0  0  0  0
   -1.0323   -0.7500    0.0000 O   0  0  0  0  0  0  0  0  0  0  0  0
    0.3943   -1.2135    0.0000 C   0  0  0  0  0  0  0  0  0  0  0  0
    0.8578   -2.6401    0.0000 N   0  0  0  0  0  0  0  0  0  0  0  0
   -1.1330   -5.9720    0.0000 C   0  0  0  0  0  0  0  0  0  0  0  0
   -2.2478   -4.9684    0.0000 C   0  0  0  0  0  0  0  0  0  0  0  0
   -1.6377   -3.5980    0.0000 N   0  0  0  0  0  0  0  0  0  0  0  0
   -0.1459   -3.7548    0.0000 C   0  0  0  0  0  0  0  0  0  0  0  0
    0.1660   -5.2220    0.0000 N   0  0  0  0  0  0  0  0  0  0  0  0
   -1.2898   -7.4638    0.0000 N   0  0  0  0  0  0  0  0  0  0  0  0
   -4.4638   -9.6980    0.0000 C   0  0  0  0  0  0  0  0  0  0  0  0
   -2.9720   -9.5412    0.0000 C   0  0  0  0  0  0  0  0  0  0  0  0
   -2.6602   -8.0739    0.0000 C   0  0  0  0  0  0  0  0  0  0  0  0
   -3.9592   -7.3239    0.0000 S   0  0  0  0  0  0  0  0  0  0  0  0
   -5.0739   -8.3276    0.0000 C   0  0  0  0  0  0  0  0  0  0  0  0
   -2.2458    1.6317    0.0000 N   0  0  0  0  0  0  0  0  0  0  0  0
   -4.6710    3.8153    0.0000 O   0  0  0  0  0  0  0  0  0  0  0  0
   -3.2037    4.1272    0.0000 C   0  0  0  0  0  0  0  0  0  0  0  0
   -2.0890    3.1235    0.0000 N   0  0  0  0  0  0  0  0  0  0  0  0
   -0.7900    3.8735    0.0000 C   0  0  0  0  0  0  0  0  0  0  0  0
   -1.1018    5.3407    0.0000 C   0  0  0  0  0  0  0  0  0  0  0  0
   -2.5936    5.4975    0.0000 O   0  0  0  0  0  0  0  0  0  0  0  0
   -8.6430   -6.8022    0.0000 C   0  0  0  0  0  0  0  0  0  0  0  0
   -8.9549   -8.2695    0.0000 C   0  0  0  0  0  0  0  0  0  0  0  0
   -7.6558   -9.0195    0.0000 N   0  0  0  0  0  0  0  0  0  0  0  0
   -6.5411   -8.0158    0.0000 C   0  0  0  0  0  0  0  0  0  0  0  0
   -7.1512   -6.6454    0.0000 N   0  0  0  0  0  0  0  0  0  0  0  0
    2.7886   -4.3786    0.0000 C   0  0  0  0  0  0  0  0  0  0  0  0
    2.3250   -2.9520    0.0000 N   0  0  0  0  0  0  0  0  0  0  0  0
  1  2  1  0
  2  3  2  0
  3  4  1  0
  4  5  1  0
  5  1  2  0
  7  8  2  0
  8  9  1  0
  9 10  1  0
 10 11  2  0
 11  7  1  0
 13 14  1  0
 14 15  2  0
 15 16  1  0
 16 17  1  0
 17 13  2  0
 19 20  2  0
 20 21  1  0
 21 22  1  0
 22 23  1  0
 23 24  1  0
 24 20  1  0
 25 26  2  0
 26 27  1  0
 27 28  1  0
 28 29  2  0
 29 25  1  0
 30 31  2  0
  5  6  1  0
  3 18  1  0
  6 10  1  0
  6 31  1  0
  7 12  1  0
 12 15  1  0
 17 28  1  0
 18 21  1  0
M  END
$$$$

     RDKit          2D

 36 41  0  0  0  0  0  0  0  0999 V2000
   -1.5000   -2.5981    0.0000 C   0  0  0  0  0  0  0  0  0  0  0  0
   -0.8899   -3.9684    0.0000 C   0  0  0  0  0  0  0  0  0  0  0  0
   -2.0046   -4.9721    0.0000 N   0  0  0  0  0  0  0  0  0  0  0  0
   -3.3037   -4.2221    0.0000 C   0  0  0  0  0  0  0  0  0  0  0  0
   -2.9918   -2.7549    0.0000 N   0  0  0  0  0  0  0  0  0  0  0  0
    1.1874   -5.6506    0.0000 C   0  0  0  0  0  0  0  0  0  0  0  0
    2.6792   -5.4938    0.0000 C   0  0  0  0  0  0  0  0  0  0  0  0
    2.9911   -4.0266    0.0000 C   0  0  0  0  0  0  0  0  0  0  0  0
    1.6920   -3.2766    0.0000 S   0  0  0  0  0  0  0  0  0  0  0  0
    0.5773   -4.2803    0.0000 C   0  0  0  0  0  0  0  0  0  0  0  0
    4.3614   -3.4165    0.0000 C   0  0  0  0  0  0  0  0  0  0  0  0
    7.0015   -3.8346    0.0000 C   0  0  0  0  0  0  0  0  0  0  0  0
    5.5749   -4.2981    0.0000 C   0  0  0  0  0  0  0  0  0  0  0  0
    5.5749   -5.7981    0.0000 N   0  0  0  0  0  0  0  0  0  0  0  0
    7.0015   -6.2617    0.0000 C   0  0  0  0  0  0  0  0  0  0  0  0
    7.8832   -5.0481    0.0000 N   0  0  0  0  0  0  0  0  0  0  0  0
    7.4650   -2.4080    0.0000 N   0  0  0  0  0  0  0  0  0  0  0  0
    1.5000    0.0000    0.0000 C   0  0  0  0  0  0  0  0  0  0  0  0
    0.7500   -1.2990    0.0000 C   0  0  0  0  0  0  0  0  0  0  0  0
   -0.7500   -1.2990    0.0000 N   0  0  0  0  0  0  0  0  0  0  0  0
   -1.5000    0.0000    0.0000 C   0  0  0  0  0  0  0  0  0  0  0  0
   -0.7500    1.2990    0.0000 C   0  0  0  0  0  0  0  0  0  0  0  0
    0.7500    1.2990    0.0000 N   0  0  0  0  0  0  0  0  0  0  0  0
   -8.5549   -4.7740    0.0000 O   0  0  0  0  0  0  0  0  0  0  0  0
   -7.0877   -5.0859    0.0000 C   0  0  0  0  0  0  0  0  0  0  0  0
   -6.4776   -6.4562    0.0000 N   0  0  0  0  0  0  0  0  0  0  0  0
   -4.9858   -6.2994    0.0000 C   0  0  0  0  0  0  0  0  0  0  0  0
   -4.6740   -4.8322    0.0000 C   0  0  0  0  0  0  0  0  0  0  0  0
   -5.9730   -4.0822    0.0000 O   0  0  0  0  0  0  0  0  0  0  0  0
   -5.1503   -9.4374    0.0000 O   0  0  0  0  0  0  0  0  0  0  0  0
   -6.6175   -9.1256    0.0000 C   0  0  0  0  0  0  0  0  0  0  0  0
   -7.2276   -7.7552    0.0000 N   0  0  0  0  0  0  0  0  0  0  0  0
   -8.7194   -7.9120    0.0000 C   0  0  0  0  0  0  0  0  0  0  0  0
   -9.0313   -9.3793    0.0000 C   0  0  0  0  0  0  0  0  0  0  0  0
   -7.7322  -10.1293    0.0000 O   0  0  0  0  0  0  0  0  0  0  0  0
    8.9323   -2.0962    0.0000 C   0  0  0  0  0  0  0  0  0  0  0  0
  1  2  2  0
  2  3  1  0
  3  4  1  0
  4  5  2  0
  5  1  1  0
  6  7  1  0
  7  8  2  0
  8  9  1  0
  9 10  1  0
 10  6  2  0
 12 13  2  0
 13 14  1  0
 14 15  1  0
 15 16  2  0
 16 12  1  0
 18 19  1  0
 19 20  1  0
 20 21  1  0
 21 22  1  0
 22 23  1  0
 23 18  1  0
 24 25  2  0
 25 26  1  0
 26 27  1  0
 27 28  1  0
 28 29  1  0
 29 25  1  0
 30 31  2  0
 31 32  1  0
 32 33  1  0
 33 34  1  0
 34 35  1  0
 35 31  1  0
  2 10  1  0
  1 20  1  0
  4 28  1  0
  8 11  1  0
 11 13  1  0
 12 17  1  0
 17 36  1  0
 26 32  1  0
M  END
$$$$

     RDKit          2D

 42 49  0  0  0  0  0  0  0  0999 V2000
    0.8578    2.6401    0.0000 N   0  0  0  0  0  0  0  0  0  0  0  0
    0.3943    1.2135    0.0000 C   0  0  0  0  0  0  0  0  0  0  0  0
    1.2760    0.0000    0.0000 C   0  0  0  0  0  0  0  0  0  0  0  0
    0.3943   -1.2135    0.0000 N   0  0  0  0  0  0  0  0  0  0  0  0
   -1.0323   -0.7500    0.0000 N   0  0  0  0  0  0  0  0  0  0  0  0
   -1.0323    0.7500    0.0000 C   0  0  0  0  0  0  0  0  0  0  0  0
   -2.2458   -1.6317    0.0000 C   0  0  0  0  0  0  0  0  0  0  0  0
   -2.2458   -3.1317    0.0000 C   0  0  0  0  0  0  0  0  0  0  0  0
   -3.6724   -3.5952    0.0000 N   0  0  0  0  0  0  0  0  0  0  0  0
   -4.5541   -2.3817    0.0000 N   0  0  0  0  0  0  0  0  0  0  0  0
   -3.6724   -1.1682    0.0000 C   0  0  0  0  0  0  0  0  0  0  0  0
   -6.4722   -5.0218    0.0000 O   0  0  0  0  0  0  0  0  0  0  0  0
   -6.9358   -3.5952    0.0000 C   0  0  0  0  0  0  0  0  0  0  0  0
   -6.0541   -2.3817    0.0000 N   0  0  0  0  0  0  0  0  0  0  0  0
   -6.9358   -1.1682    0.0000 C   0  0  0  0  0  0  0  0  0  0  0  0
   -8.3623   -1.6317    0.0000 C   0  0  0  0  0  0  0  0  0  0  0  0
   -8.3623   -3.1317    0.0000 O   0  0  0  0  0  0  0  0  0  0  0  0
    3.4398    1.9483    0.0000 C   0  0  0  0  0  0  0  0  0  0  0  0
    4.7388    2.6983    0.0000 C   0  0  0  0  0  0  0  0  0  0  0  0
    4.4269    4.1655    0.0000 C   0  0  0  0  0  0  0  0  0  0  0  0
    2.9352    4.3223    0.0000 O   0  0  0  0  0  0  0  0  0  0  0  0
    2.3250    2.9520    0.0000 C   0  0  0  0  0  0  0  0  0  0  0  0
  -11.0024    1.2135    0.0000 C   0  0  0  0  0  0  0  0  0  0  0  0
  -11.8841    0.0000    0.0000 C   0  0  0  0  0  0  0  0  0  0  0  0
  -11.0024   -1.2135    0.0000 N   0  0  0  0  0  0  0  0  0  0  0  0
   -9.5759   -0.7500    0.0000 C   0  0  0  0  0  0  0  0  0  0  0  0
   -9.5759    0.7500    0.0000 N   0  0  0  0  0  0  0  0  0  0  0  0
    5.4306    5.2802    0.0000 C   0  0  0  0  0  0  0  0  0  0  0  0
    5.1188    6.7474    0.0000 C   0  0  0  0  0  0  0  0  0  0  0  0
    6.4178    7.4974    0.0000 N   0  0  0  0  0  0  0  0  0  0  0  0
    7.5325    6.4937    0.0000 C   0  0  0  0  0  0  0  0  0  0  0  0
    6.9224    5.1234    0.0000 N   0  0  0  0  0  0  0  0  0  0  0  0
    2.4494    6.6075    0.0000 C   0  0  0  0  0  0  0  0  0  0  0  0
    3.7484    7.3575    0.0000 C   0  0  0  0  0  0  0  0  0  0  0  0
    3.4366    8.8248    0.0000 N   0  0  0  0  0  0  0  0  0  0  0  0
    1.9448    8.9816    0.0000 C   0  0  0  0  0  0  0  0  0  0  0  0
    1.3347    7.6112    0.0000 N   0  0  0  0  0  0  0  0  0  0  0  0
   11.1016    8.0191    0.0000 C   0  0  0  0  0  0  0  0  0  0  0  0
    9.6098    8.1759    0.0000 C   0  0  0  0  0  0  0  0  0  0  0  0
    8.9997    6.8056    0.0000 C   0  0  0  0  0  0  0  0  0  0  0  0
   10.1145    5.8019    0.0000 S   0  0  0  0  0  0  0  0  0  0  0  0
   11.4135    6.5519    0.0000 C   0  0  0  0  0  0  0  0  0  0  0  0
  2  3  1  0
  3  4  2  0
  4  5  1  0
  5  6  1  0
  6  2  2  0
  7  8  1  0
  8  9  2  0
  9 10  1  0
 10 11  1  0
 11  7  2  0
 12 13  2  0
 13 14  1  0
 14 15  1  0
 15 16  1  0
 16 17  1  0
 17 13  1  0
 18 19  1  0
 19 20  2  0
 20 21  1  0
 21 22  1  0
 22 18  2  0
 23 24  2  0
 24 25  1  0
 25 26  1  0
 26 27  2  0
 27 23  1  0
 28 29  2  0
 29 30  1  0
 30 31  1  0
 31 32  2  0
 32 28  1  0
 33 34  2  0
 34 35  1  0
 35 36  1  0
 36 37  2  0
 37 33  1  0
 38 39  1  0
 39 40  2  0
 40 41  1  0
 41 42  1  0
 42 38  2  0
  1  2  1  0
  1 22  1  0
  5  7  1  0
 10 14  1  0
 16 26  1  0
 20 28  1  0
 29 34  1  0
 31 40  1  0
M  END
$$$$

     RDKit          2D

 37 42  0  0  0  0  0  0  0  0999 V2000
   -3.7500    1.2990    0.0000 C   0  0  0  0  0  0  0  0  0  0  0  0
   -5.2418    1.4558    0.0000 C   0  0  0  0  0  0  0  0  0  0  0  0
   -5.5537    2.9231    0.0000 N   0  0  0  0  0  0  0  0  0  0  0  0
   -4.2546    3.6731    0.0000 N   0  0  0  0  0  0  0  0  0  0  0  0
   -3.1399    2.6694    0.0000 C   0  0  0  0  0  0  0  0  0  0  0  0
   -3.0000    0.0000    0.0000 C   0  0  0  0  0  0  0  0  0  0  0  0
   -4.0978    5.1648    0.0000 C   0  0  0  0  0  0  0  0  0  0  0  0
   -0.7500   -1.2990    0.0000 C   0  0  0  0  0  0  0  0  0  0  0  0
    0.7500   -1.2990    0.0000 C   0  0  0  0  0  0  0  0  0  0  0  0
    1.5000    0.0000    0.0000 N   0  0  0  0  0  0  0  0  0  0  0  0
    0.7500    1.2990    0.0000 C   0  0  0  0  0  0  0  0  0  0  0  0
   -0.7500    1.2990    0.0000 C   0  0  0  0  0  0  0  0  0  0  0  0
   -1.5000    0.0000    0.0000 N   0  0  0  0  0  0  0  0  0  0  0  0
   -2.0046   -4.9721    0.0000 C   0  0  0  0  0  0  0  0  0  0  0  0
   -0.8899   -3.9684    0.0000 C   0  0  0  0  0  0  0  0  0  0  0  0
   -1.5000   -2.5981    0.0000 C   0  0  0  0  0  0  0  0  0  0  0  0
   -2.9918   -2.7549    0.0000 O   0  0  0  0  0  0  0  0  0  0  0  0
   -3.3037   -4.2221    0.0000 C   0  0  0  0  0  0  0  0  0  0  0  0
   -7.2578   -4.5606    0.0000 C   0  0  0  0  0  0  0  0  0  0  0  0
   -5.8875   -3.9505    0.0000 C   0  0  0  0  0  0  0  0  0  0  0  0
   -4.6740   -4.8322    0.0000 C   0  0  0  0  0  0  0  0  0  0  0  0
   -4.8308   -6.3240    0.0000 N   0  0  0  0  0  0  0  0  0  0  0  0
   -6.2011   -6.9341    0.0000 C   0  0  0  0  0  0  0  0  0  0  0  0
   -7.4146   -6.0524    0.0000 C   0  0  0  0  0  0  0  0  0  0  0  0
   -6.3579   -8.4259    0.0000 C   0  0  0  0  0  0  0  0  0  0  0  0
   -5.2432   -9.4296    0.0000 C   0  0  0  0  0  0  0  0  0  0  0  0
   -5.8533  -10.7999    0.0000 N   0  0  0  0  0  0  0  0  0  0  0  0
   -7.3450  -10.6431    0.0000 C   0  0  0  0  0  0  0  0  0  0  0  0
   -7.6569   -9.1759    0.0000 N   0  0  0  0  0  0  0  0  0  0  0  0
    3.3037   -4.2221    0.0000 C   0  0  0  0  0  0  0  0  0  0  0  0
    2.9918   -2.7549    0.0000 C   0  0  0  0  0  0  0  0  0  0  0  0
    1.5000   -2.5981    0.0000 C   0  0  0  0  0  0  0  0  0  0  0  0
    0.8899   -3.9684    0.0000 O   0  0  0  0  0  0  0  0  0  0  0  0
    2.0046   -4.9721    0.0000 C   0  0  0  0  0  0  0  0  0  0  0  0
   -3.3124   -7.6911    0.0000 O   0  0  0  0  0  0  0  0  0  0  0  0
   -3.7759   -9.1177    0.0000 N   0  0  0  0  0  4  0  0  0  0  0  0
   -2.7722  -10.2324    0.0000 O   0  0  0  0  0  1  0  0  0  0  0  0
  1  2  1  0
  2  3  2  0
  3  4  1  0
  4  5  1  0
  5  1  2  0
  8  9  1  0
  9 10  1  0
 10 11  1  0
 11 12  1  0
 12 13  1  0
 13  8  1  0
 14 15  1  0
 15 16  2  0
 16 17  1  0
 17 18  1  0
 18 14  2  0
 19 20  2  0
 20 21  1  0
 21 22  2  0
 22 23  1  0
 23 24  2  0
 24 19  1  0
 25 26  2  0
 26 27  1  0
 27 28  1  0
 28 29  2  0
 29 25  1  0
 30 31  1  0
 31 32  2  0
 32 33  1  0
 33 34  1  0
 34 30  2  0
 35 36  2  0
 36 37  1  0
  1  6  1  0
  4  7  1  0
  6 13  1  0
  8 16  1  0
  9 32  1  0
 18 21  1  0
 23 25  1  0
 26 36  1  0
M  CHG  2  36   1  37  -1
M  RAD  1  36   2
M  END
$$$$

     RDKit          2D

 24 26  0  0  0  0  0  0  0  0999 V2000
    1.5000   -2.5981    0.0000 N   0  0  0  0  0  0  0  0  0  0  0  0
    1.5000    0.0000    0.0000 C   0  0  0  0  0  0  0  0  0  0  0  0
    0.7500   -1.2990    0.0000 C   0  0  0  0  0  0  0  0  0  0  0  0
   -0.7500   -1.2990    0.0000 C   0  0  0  0  0  0  0  0  0  0  0  0
   -1.5000    0.0000    0.0000 C   0  0  0  0  0  0  0  0  0  0  0  0
   -0.7500    1.2990    0.0000 C   0  0  0  0  0  0  0  0  0  0  0  0
    0.7500    1.2990    0.0000 C   0  0  0  0  0  0  0  0  0  0  0  0
    3.0000    0.0000    0.0000 F   0  0  0  0  0  0  0  0  0  0  0  0
    0.7500   -3.8971    0.0000 C   0  0  0  0  0  0  0  0  0  0  0  0
    1.3601   -5.2674    0.0000 C   0  0  0  0  0  0  0  0  0  0  0  0
    0.2454   -6.2711    0.0000 N   0  0  0  0  0  0  0  0  0  0  0  0
   -1.0537   -5.5211    0.0000 C   0  0  0  0  0  0  0  0  0  0  0  0
   -0.7418   -4.0539    0.0000 N   0  0  0  0  0  0  0  0  0  0  0  0
    2.8273   -5.5793    0.0000 O   0  0  0  0  0  0  0  0  0  0  0  0
    3.0000   -2.5981    0.0000 N   0  0  0  0  0  0  0  0  0  0  0  0
    4.7581   -7.3178    0.0000 C   0  0  0  0  0  0  0  0  0  0  0  0
    3.2909   -7.0059    0.0000 N   0  0  0  0  0  0  0  0  0  0  0  0
   -2.4240   -6.1312    0.0000 F   0  0  0  0  0  0  0  0  0  0  0  0
    4.6814  -11.2856    0.0000 C   0  0  0  0  0  0  0  0  0  0  0  0
    4.2179   -9.8591    0.0000 C   0  0  0  0  0  0  0  0  0  0  0  0
    5.2216   -8.7443    0.0000 N   0  0  0  0  0  0  0  0  0  0  0  0
    6.6888   -9.0562    0.0000 C   0  0  0  0  0  0  0  0  0  0  0  0
    7.1523  -10.4828    0.0000 C   0  0  0  0  0  0  0  0  0  0  0  0
    6.1486  -11.5975    0.0000 N   0  0  0  0  0  0  0  0  0  0  0  0
  2  3  2  0
  3  4  1  0
  4  5  2  0
  5  6  1  0
  6  7  2  0
  7  2  1  0
  9 10  2  0
 10 11  1  0
 11 12  1  0
 12 13  2  0
 13  9  1  0
 16 17  2  3
 19 20  1  0
 20 21  1  0
 21 22  1  0
 22 23  1  0
 23 24  1  0
 24 19  1  0
  1  3  1  0
  1  9  1  0
  1 15  1  0
  2  8  1  0
 10 14  1  0
 12 18  1  0
 14 17  1  0
 16 21  1  0
M  END
$$$$

     RDKit          2D

 41 47  0  0  0  0  0  0  0  0999 V2000
    4.4136    1.0000    0.0000 C   0  0  0  0  0  0  0  0  0  0  0  0
    3.5320    2.2135    0.0000 C   0  0  0  0  0  0  0  0  0  0  0  0
    2.1054    1.7500    0.0000 C   0  0  0  0  0  0  0  0  0  0  0  0
    2.1054    0.2500    0.0000 O   0  0  0  0  0  0  0  0  0  0  0  0
    3.5320   -0.2136    0.0000 C   0  0  0  0  0  0  0  0  0  0  0  0
    3.9955   -1.6402    0.0000 N   0  0  0  0  0  0  0  0  0  0  0  0
    1.5000   -2.5981    0.0000 C   0  0  0  0  0  0  0  0  0  0  0  0
    2.9918   -2.7549    0.0000 C   0  0  0  0  0  0  0  0  0  0  0  0
    3.3037   -4.2221    0.0000 N   0  0  0  0  0  0  0  0  0  0  0  0
    2.0046   -4.9721    0.0000 C   0  0  0  0  0  0  0  0  0  0  0  0
    0.8899   -3.9684    0.0000 N   0  0  0  0  0  0  0  0  0  0  0  0
    0.7500   -1.2990    0.0000 C   0  0  0  0  0  0  0  0  0  0  0  0
    1.5000    0.0000    0.0000 C   0  0  0  0  0  0  0  0  0  0  0  0
    0.7500    1.2990    0.0000 N   0  0  0  0  0  0  0  0  0  0  0  0
   -0.7500    1.2990    0.0000 C   0  0  0  0  0  0  0  0  0  0  0  0
   -1.5000    0.0000    0.0000 C   0  0  0  0  0  0  0  0  0  0  0  0
   -0.7500   -1.2990    0.0000 N   0  0  0  0  0  0  0  0  0  0  0  0
    7.5646   -3.1655    0.0000 C   0  0  0  0  0  0  0  0  0  0  0  0
    6.0728   -3.3223    0.0000 C   0  0  0  0  0  0  0  0  0  0  0  0
    5.4627   -1.9520    0.0000 C   0  0  0  0  0  0  0  0  0  0  0  0
    6.5774   -0.9483    0.0000 O   0  0  0  0  0  0  0  0  0  0  0  0
    7.8765   -1.6983    0.0000 C   0  0  0  0  0  0  0  0  0  0  0  0
   -0.1430   -9.7958    0.0000 O   0  0  0  0  0  0  0  0  0  0  0  0
    0.8606   -8.6811    0.0000 C   0  0  0  0  0  0  0  0  0  0  0  0
    2.3524   -8.8379    0.0000 N   0  0  0  0  0  0  0  0  0  0  0  0
    2.9625   -7.4676    0.0000 C   0  0  0  0  0  0  0  0  0  0  0  0
    1.8478   -6.4639    0.0000 C   0  0  0  0  0  0  0  0  0  0  0  0
    0.5488   -7.2139    0.0000 O   0  0  0  0  0  0  0  0  0  0  0  0
    2.4923  -11.5072    0.0000 C   0  0  0  0  0  0  0  0  0  0  0  0
    3.6070  -12.5109    0.0000 C   0  0  0  0  0  0  0  0  0  0  0  0
    4.9061  -11.7609    0.0000 C   0  0  0  0  0  0  0  0  0  0  0  0
    4.5942  -10.2937    0.0000 S   0  0  0  0  0  0  0  0  0  0  0  0
    3.1024  -10.1369    0.0000 C   0  0  0  0  0  0  0  0  0  0  0  0
   -3.0000   -2.5981    0.0000 C   0  0  0  0  0  0  0  0  0  0  0  0
   -1.5000   -2.5981    0.0000 N   0  0  0  0  0  0  0  0  0  0  0  0
    6.2764  -12.3710    0.0000 C   0  0  0  0  0  0  0  0  0  0  0  0
    6.4332  -13.8628    0.0000 C   0  0  0  0  0  0  0  0  0  0  0  0
    7.8035  -14.4729    0.0000 N   0  0  0  0  0  0  0  0  0  0  0  0
    9.0170  -13.5913    0.0000 C   0  0  0  0  0  0  0  0  0  0  0  0
    8.8602  -12.0995    0.0000 C   0  0  0  0  0  0  0  0  0  0  0  0
    7.4899  -11.4894    0.0000 N   0  0  0  0  0  0  0  0  0  0  0  0
  1  2  1  0
  2  3  2  0
  3  4  1  0
  4  5  1  0
  5  1  2  0
  7  8  2  0
  8  9  1  0
  9 10  1  0
 10 11  2  0
 11  7  1  0
 12 13  1  0
 13 14  1  0
 14 15  1  0
 15 16  1  0
 16 17  1  0
 17 12  1  0
 18 19  1  0
 19 20  2  0
 20 21  1  0
 21 22  1  0
 22 18  2  0
 23 24  2  0
 24 25  1  0
 25 26  1  0
 26 27  1  0
 27 28  1  0
 28 24  1  0
 29 30  1  0
 30 31  2  0
 31 32  1  0
 32 33  1  0
 33 29  2  0
 34 35  2  0
 36 37  1  0
 37 38  1  0
 38 39  1  0
 39 40  1  0
 40 41  1  0
 41 36  1  0
  5  6  1  0
  6  8  1  0
  6 20  1  0
  7 12  1  0
 10 27  1  0
 17 35  1  0
 25 33  1  0
 31 36  1  0
M  END
$$$$

     RDKit          2D

 33 37  0  0  0  0  0  0  0  0999 V2000
   -1.5000   -2.5981    0.0000 N   0  0  0  0  0  0  0  0  0  0  0  0
   -0.7500   -1.2990    0.0000 C   0  0  0  0  0  0  0  0  0  0  0  0
    0.7500   -1.2990    0.0000 C   0  0  0  0  0  0  0  0  0  0  0  0
    1.5000    0.0000    0.0000 N   0  0  0  0  0  0  0  0  0  0  0  0
    0.7500    1.2990    0.0000 C   0  0  0  0  0  0  0  0  0  0  0  0
   -0.7500    1.2990    0.0000 C   0  0  0  0  0  0  0  0  0  0  0  0
   -1.5000    0.0000    0.0000 N   0  0  0  0  0  0  0  0  0  0  0  0
    1.0537   -5.5211    0.0000 C   0  0  0  0  0  0  0  0  0  0  0  0
    0.7418   -4.0539    0.0000 C   0  0  0  0  0  0  0  0  0  0  0  0
   -0.7500   -3.8971    0.0000 C   0  0  0  0  0  0  0  0  0  0  0  0
   -1.3601   -5.2674    0.0000 S   0  0  0  0  0  0  0  0  0  0  0  0
   -0.2454   -6.2711    0.0000 C   0  0  0  0  0  0  0  0  0  0  0  0
    1.5000   -2.5981    0.0000 C   0  0  0  0  0  0  0  0  0  0  0  0
    3.0000   -2.5981    0.0000 C   0  0  0  0  0  0  0  0  0  0  0  0
    3.7500   -3.8971    0.0000 N   0  0  0  0  0  0  0  0  0  0  0  0
    3.0000   -5.1962    0.0000 C   0  0  0  0  0  0  0  0  0  0  0  0
    1.5000   -5.1962    0.0000 C   0  0  0  0  0  0  0  0  0  0  0  0
    0.7500   -3.8971    0.0000 N   0  0  0  0  0  0  0  0  0  0  0  0
   -5.2500   -1.2990    0.0000 C   0  0  0  0  0  0  0  0  0  0  0  0
   -3.7500   -1.2990    0.0000 C   0  0  0  0  0  0  0  0  0  0  0  0
   -3.0000   -2.5981    0.0000 C   0  0  0  0  0  0  0  0  0  0  0  0
   -3.7500   -3.8971    0.0000 N   0  0  0  0  0  0  0  0  0  0  0  0
   -5.2500   -3.8971    0.0000 C   0  0  0  0  0  0  0  0  0  0  0  0
   -6.0000   -2.5981    0.0000 C   0  0  0  0  0  0  0  0  0  0  0  0
    3.7500   -1.2990    0.0000 C   0  0  0  0  0  0  0  0  0  0  0  0
    5.2500   -1.2990    0.0000 C   0  0  0  0  0  0  0  0  0  0  0  0
    6.0000   -0.0000    0.0000 N   0  0  0  0  0  0  0  0  0  0  0  0
    7.5000   -0.0000    0.0000 C   0  0  0  0  0  0  0  0  0  0  0  0
    8.3817   -1.2135    0.0000 C   0  0  0  0  0  0  0  0  0  0  0  0
    9.8083   -0.7500    0.0000 N   0  0  0  0  0  0  0  0  0  0  0  0
    9.8083    0.7500    0.0000 N   0  0  0  0  0  0  0  0  0  0  0  0
    8.3817    1.2135    0.0000 C   0  0  0  0  0  0  0  0  0  0  0  0
    3.0000    0.0000    0.0000 N   0  0  0  0  0  0  0  0  0  0  0  0
  2  3  1  0
  3  4  1  0
  4  5  1  0
  5  6  1  0
  6  7  1  0
  7  2  1  0
  8  9  1  0
  9 10  2  0
 10 11  1  0
 11 12  1  0
 12  8  2  0
 13 14  1  0
 14 15  1  0
 15 16  1  0
 16 17  1  0
 17 18  1  0
 18 13  1  0
 19 20  2  0
 20 21  1  0
 21 22  2  0
 22 23  1  0
 23 24  2  0
 24 19  1  0
 26 27  2  3
 28 29  1  0
 29 30  2  0
 30 31  1  0
 31 32  1  0
 32 28  2  0
  1  2  1  0
  1 10  1  0
  1 21  1  0
  3 13  1  0
  4 33  1  0
 14 25  1  0
 25 26  1  0
 27 28  1  0
M  END
$$$$

     RDKit          2D

 33 37  0  0  0  0  0  0  0  0999 V2000
   -5.9730   -4.0822    0.0000 C   0  0  0  0  0  0  0  0  0  0  0  0
   -7.0877   -5.0859    0.0000 C   0  0  0  0  0  0  0  0  0  0  0  0
   -6.4776   -6.4562    0.0000 C   0  0  0  0  0  0  0  0  0  0  0  0
   -4.9858   -6.2994    0.0000 S   0  0  0  0  0  0  0  0  0  0  0  0
   -4.6740   -4.8322    0.0000 C   0  0  0  0  0  0  0  0  0  0  0  0
   -1.5000   -2.5981    0.0000 C   0  0  0  0  0  0  0  0  0  0  0  0
   -0.8899   -3.9684    0.0000 C   0  0  0  0  0  0  0  0  0  0  0  0
   -2.0046   -4.9721    0.0000 N   0  0  0  0  0  0  0  0  0  0  0  0
   -3.3037   -4.2221    0.0000 N   0  0  0  0  0  0  0  0  0  0  0  0
   -2.9918   -2.7549    0.0000 C   0  0  0  0  0  0  0  0  0  0  0  0
   -7.2276   -7.7552    0.0000 C   0  0  0  0  0  0  0  0  0  0  0  0
   -8.7276   -7.7552    0.0000 N   0  0  0  0  0  0  0  0  0  0  0  0
   -9.4776   -9.0543    0.0000 C   0  0  0  0  0  0  0  0  0  0  0  0
    1.5000    0.0000    0.0000 C   0  0  0  0  0  0  0  0  0  0  0  0
    0.7500   -1.2990    0.0000 C   0  0  0  0  0  0  0  0  0  0  0  0
   -0.7500   -1.2990    0.0000 C   0  0  0  0  0  0  0  0  0  0  0  0
   -1.5000    0.0000    0.0000 N   0  0  0  0  0  0  0  0  0  0  0  0
   -0.7500    1.2990    0.0000 C   0  0  0  0  0  0  0  0  0  0  0  0
    0.7500    1.2990    0.0000 C   0  0  0  0  0  0  0  0  0  0  0  0
  -11.7276   -7.7552    0.0000 C   0  0  0  0  0  0  0  0  0  0  0  0
  -10.9776   -9.0543    0.0000 C   0  0  0  0  0  0  0  0  0  0  0  0
  -11.7276  -10.3533    0.0000 N   0  0  0  0  0  0  0  0  0  0  0  0
  -13.2276  -10.3533    0.0000 C   0  0  0  0  0  0  0  0  0  0  0  0
  -13.9776   -9.0543    0.0000 C   0  0  0  0  0  0  0  0  0  0  0  0
  -13.2276   -7.7552    0.0000 N   0  0  0  0  0  0  0  0  0  0  0  0
  -13.9776   -6.4562    0.0000 N   0  0  0  0  0  0  0  0  0  0  0  0
  -13.2276   -5.1572    0.0000 N   0  0  0  0  0  0  0  0  0  0  0  0
  -14.3254    0.0077    0.0000 O   0  0  0  0  0  0  0  0  0  0  0  0
  -14.4822   -1.4841    0.0000 C   0  0  0  0  0  0  0  0  0  0  0  0
  -15.7813   -2.2341    0.0000 N   0  0  0  0  0  0  0  0  0  0  0  0
  -15.4694   -3.7013    0.0000 C   0  0  0  0  0  0  0  0  0  0  0  0
  -13.9776   -3.8581    0.0000 C   0  0  0  0  0  0  0  0  0  0  0  0
  -13.3675   -2.4878    0.0000 O   0  0  0  0  0  0  0  0  0  0  0  0
  1  2  1  0
  2  3  2  0
  3  4  1  0
  4  5  1  0
  5  1  2  0
  6  7  1  0
  7  8  2  0
  8  9  1  0
  9 10  1  0
 10  6  2  0
 11 12  2  3
 14 15  2  0
 15 16  1  0
 16 17  2  0
 17 18  1  0
 18 19  2  0
 19 14  1  0
 20 21  1  0
 21 22  1  0
 22 23  1  0
 23 24  1  0
 24 25  1  0
 25 20  1  0
 28 29  2  0
 29 30  1  0
 30 31  1  0
 31 32  1  0
 32 33  1  0
 33 29  1  0
  5  9  1  0
  3 11  1  0
  6 16  1  0
 12 13  1  0
 13 21  1  0
 25 26  1  0
 26 27  1  0
 27 32  1  0
M  END
$$$$

     RDKit          2D

 36 41  0  0  0  0  0  0  0  0999 V2000
   -0.7500   -1.2990    0.0000 C   0  0  0  0  0  0  0  0  0  0  0  0
    0.7500   -1.2990    0.0000 C   0  0  0  0  0  0  0  0  0  0  0  0
    1.5000    0.0000    0.0000 N   0  0  0  0  0  0  0  0  0  0  0  0
    0.7500    1.2990    0.0000 C   0  0  0  0  0  0  0  0  0  0  0  0
   -0.7500    1.2990    0.0000 C   0  0  0  0  0  0  0  0  0  0  0  0
   -1.5000    0.0000    0.0000 N   0  0  0  0  0  0  0  0  0  0  0  0
   -3.0000    0.0000    0.0000 O   0  0  0  0  0  0  0  0  0  0  0  0
   -3.7500    3.8971    0.0000 C   0  0  0  0  0  0  0  0  0  0  0  0
   -3.0000    2.5981    0.0000 C   0  0  0  0  0  0  0  0  0  0  0  0
   -3.7500    1.2990    0.0000 N   0  0  0  0  0  0  0  0  0  0  0  0
   -5.2500    1.2990    0.0000 C   0  0  0  0  0  0  0  0  0  0  0  0
   -6.0000    2.5981    0.0000 C   0  0  0  0  0  0  0  0  0  0  0  0
   -5.2500    3.8971    0.0000 N   0  0  0  0  0  0  0  0  0  0  0  0
    3.3037   -4.2221    0.0000 C   0  0  0  0  0  0  0  0  0  0  0  0
    2.9918   -2.7549    0.0000 C   0  0  0  0  0  0  0  0  0  0  0  0
    1.5000   -2.5981    0.0000 C   0  0  0  0  0  0  0  0  0  0  0  0
    0.8899   -3.9684    0.0000 S   0  0  0  0  0  0  0  0  0  0  0  0
    2.0046   -4.9721    0.0000 C   0  0  0  0  0  0  0  0  0  0  0  0
   -3.3037   -4.2221    0.0000 C   0  0  0  0  0  0  0  0  0  0  0  0
   -2.0046   -4.9721    0.0000 C   0  0  0  0  0  0  0  0  0  0  0  0
   -0.8899   -3.9684    0.0000 N   0  0  0  0  0  0  0  0  0  0  0  0
   -1.5000   -2.5981    0.0000 C   0  0  0  0  0  0  0  0  0  0  0  0
   -2.9918   -2.7549    0.0000 N   0  0  0  0  0  0  0  0  0  0  0  0
   -1.8478   -6.4639    0.0000 N   0  0  0  0  0  0  0  0  0  0  0  0
    2.9625   -7.4676    0.0000 C   0  0  0  0  0  0  0  0  0  0  0  0
    1.8478   -6.4639    0.0000 C   0  0  0  0  0  0  0  0  0  0  0  0
    0.5488   -7.2139    0.0000 N   0  0  0  0  0  0  0  0  0  0  0  0
    0.8606   -8.6811    0.0000 C   0  0  0  0  0  0  0  0  0  0  0  0
    2.3524   -8.8379    0.0000 N   0  0  0  0  0  0  0  0  0  0  0  0
   -4.6740   -4.8322    0.0000 C   0  0  0  0  0  0  0  0  0  0  0  0
   -5.6452   -7.6171    0.0000 C   0  0  0  0  0  0  0  0  0  0  0  0
   -4.4317   -6.7354    0.0000 C   0  0  0  0  0  0  0  0  0  0  0  0
   -3.0613   -7.3456    0.0000 N   0  0  0  0  0  0  0  0  0  0  0  0
   -2.9046   -8.8373    0.0000 C   0  0  0  0  0  0  0  0  0  0  0  0
   -4.1181   -9.7190    0.0000 C   0  0  0  0  0  0  0  0  0  0  0  0
   -5.4884   -9.1089    0.0000 N   0  0  0  0  0  0  0  0  0  0  0  0
  1  2  1  0
  2  3  1  0
  3  4  1  0
  4  5  1  0
  5  6  1  0
  6  1  1  0
  8  9  1  0
  9 10  1  0
 10 11  1  0
 11 12  1  0
 12 13  1  0
 13  8  1  0
 14 15  1  0
 15 16  2  0
 16 17  1  0
 17 18  1  0
 18 14  2  0
 19 20  2  0
 20 21  1  0
 21 22  1  0
 22 23  2  0
 23 19  1  0
 25 26  2  0
 26 27  1  0
 27 28  1  0
 28 29  2  0
 29 25  1  0
 31 32  1  0
 32 33  1  0
 33 34  1  0
 34 35  1  0
 35 36  1  0
 36 31  1  0
  6  7  1  0
  2 16  1  0
  1 22  1  0
  7 10  1  0
 18 26  1  0
 20 24  1  0
 19 30  1  0
 24 33  1  0
M  END
$$$$

     RDKit          2D

 38 43  0  0  0  0  0  0  0  0999 V2000
   -0.7500   -1.2990    0.0000 C   0  0  0  0  0  0  0  0  0  0  0  0
    0.7500   -1.2990    0.0000 C   0  0  0  0  0  0  0  0  0  0  0  0
    1.5000    0.0000    0.0000 C   0  0  0  0  0  0  0  0  0  0  0  0
    0.7500    1.2990    0.0000 C   0  0  0  0  0  0  0  0  0  0  0  0
   -0.7500    1.2990    0.0000 C   0  0  0  0  0  0  0  0  0  0  0  0
   -1.5000    0.0000    0.0000 C   0  0  0  0  0  0  0  0  0  0  0  0
   -3.7500   -3.8971    0.0000 C   0  0  0  0  0  0  0  0  0  0  0  0
   -3.0000   -2.5981    0.0000 C   0  0  0  0  0  0  0  0  0  0  0  0
   -1.5000   -2.5981    0.0000 N   0  0  0  0  0  0  0  0  0  0  0  0
   -0.7500   -3.8971    0.0000 C   0  0  0  0  0  0  0  0  0  0  0  0
   -1.5000   -5.1962    0.0000 C   0  0  0  0  0  0  0  0  0  0  0  0
   -3.0000   -5.1962    0.0000 N   0  0  0  0  0  0  0  0  0  0  0  0
   -6.0000   -5.1962    0.0000 C   0  0  0  0  0  0  0  0  0  0  0  0
   -5.2500   -3.8971    0.0000 C   0  0  0  0  0  0  0  0  0  0  0  0
   -6.0000   -2.5981    0.0000 N   0  0  0  0  0  0  0  0  0  0  0  0
   -7.5000   -2.5981    0.0000 C   0  0  0  0  0  0  0  0  0  0  0  0
   -8.2500   -3.8971    0.0000 C   0  0  0  0  0  0  0  0  0  0  0  0
   -7.5000   -5.1962    0.0000 N   0  0  0  0  0  0  0  0  0  0  0  0
   -3.7500   -1.2990    0.0000 O   0  0  0  0  0  0  0  0  0  0  0  0
   -3.0000    0.0000    0.0000 O   0  0  0  0  0  0  0  0  0  0  0  0
    1.5000   -2.5981    0.0000 C   0  0  0  0  0  0  0  0  0  0  0  0
    3.0000   -2.5981    0.0000 C   0  0  0  0  0  0  0  0  0  0  0  0
    3.7500   -3.8971    0.0000 N   0  0  0  0  0  0  0  0  0  0  0  0
    3.0000   -5.1962    0.0000 C   0  0  0  0  0  0  0  0  0  0  0  0
    1.5000   -5.1962    0.0000 C   0  0  0  0  0  0  0  0  0  0  0  0
    0.7500   -3.8971    0.0000 N   0  0  0  0  0  0  0  0  0  0  0  0
    5.2418   -1.1422    0.0000 C   0  0  0  0  0  0  0  0  0  0  0  0
    3.7500   -1.2990    0.0000 C   0  0  0  0  0  0  0  0  0  0  0  0
    3.1399    0.0713    0.0000 N   0  0  0  0  0  0  0  0  0  0  0  0
    4.2546    1.0750    0.0000 C   0  0  0  0  0  0  0  0  0  0  0  0
    5.5537    0.3250    0.0000 N   0  0  0  0  0  0  0  0  0  0  0  0
    6.0000   -5.1962    0.0000 C   0  0  0  0  0  0  0  0  0  0  0  0
    7.5000   -5.1962    0.0000 C   0  0  0  0  0  0  0  0  0  0  0  0
    8.2500   -3.8971    0.0000 N   0  0  0  0  0  0  0  0  0  0  0  0
    7.5000   -2.5981    0.0000 C   0  0  0  0  0  0  0  0  0  0  0  0
    6.0000   -2.5981    0.0000 C   0  0  0  0  0  0  0  0  0  0  0  0
    5.2500   -3.8971    0.0000 N   0  0  0  0  0  0  0  0  0  0  0  0
   -3.7500    1.2990    0.0000 N   0  0  0  0  0  0  0  0  0  0  0  0
  1  2  1  0
  2  3  2  0
  3  4  1  0
  4  5  2  0
  5  6  1  0
  6  1  2  0
  7  8  1  0
  8  9  1  0
  9 10  1  0
 10 11  1  0
 11 12  1  0
 12  7  1  0
 13 14  1  0
 14 15  1  0
 15 16  1  0
 16 17  1  0
 17 18  1  0
 18 13  1  0
 21 22  1  0
 22 23  1  0
 23 24  1  0
 24 25  1  0
 25 26  1  0
 26 21  1  0
 27 28  2  0
 28 29  1  0
 29 30  1  0
 30 31  2  0
 31 27  1  0
 32 33  1  0
 33 34  1  0
 34 35  1  0
 35 36  1  0
 36 37  1  0
 37 32  1  0
  1  9  1  0
  2 21  1  0
  7 14  1  0
  8 19  1  0
 19 20  1  0
 20 38  1  0
 22 28  1  0
 23 37  1  0
M  END
$$$$

     RDKit          2D

 40 46  0  0  0  0  0  0  0  0999 V2000
   -1.5000   -2.5981    0.0000 N   0  0  0  0  0  0  0  0  0  0  0  0
   -3.8817   -1.3846    0.0000 C   0  0  0  0  0  0  0  0  0  0  0  0
   -3.0000   -2.5981    0.0000 C   0  0  0  0  0  0  0  0  0  0  0  0
   -3.8817   -3.8116    0.0000 N   0  0  0  0  0  0  0  0  0  0  0  0
   -5.3083   -3.3481    0.0000 C   0  0  0  0  0  0  0  0  0  0  0  0
   -5.3083   -1.8481    0.0000 N   0  0  0  0  0  0  0  0  0  0  0  0
   -3.4182    2.4691    0.0000 C   0  0  0  0  0  0  0  0  0  0  0  0
   -1.9916    2.0056    0.0000 C   0  0  0  0  0  0  0  0  0  0  0  0
   -1.9916    0.5056    0.0000 N   0  0  0  0  0  0  0  0  0  0  0  0
   -3.4182    0.0420    0.0000 C   0  0  0  0  0  0  0  0  0  0  0  0
   -4.2998    1.2556    0.0000 N   0  0  0  0  0  0  0  0  0  0  0  0
   -6.5218   -4.2298    0.0000 F   0  0  0  0  0  0  0  0  0  0  0  0
   -5.3083    5.8592    0.0000 C   0  0  0  0  0  0  0  0  0  0  0  0
   -3.8817    6.3227    0.0000 C   0  0  0  0  0  0  0  0  0  0  0  0
   -3.0000    5.1092    0.0000 N   0  0  0  0  0  0  0  0  0  0  0  0
   -3.8817    3.8957    0.0000 C   0  0  0  0  0  0  0  0  0  0  0  0
   -5.3083    4.3592    0.0000 N   0  0  0  0  0  0  0  0  0  0  0  0
   -0.2454    1.0750    0.0000 C   0  0  0  0  0  0  0  0  0  0  0  0
    1.0537    0.3250    0.0000 C   0  0  0  0  0  0  0  0  0  0  0  0
    0.7418   -1.1422    0.0000 N   0  0  0  0  0  0  0  0  0  0  0  0
   -0.7500   -1.2990    0.0000 C   0  0  0  0  0  0  0  0  0  0  0  0
   -1.3601    0.0713    0.0000 N   0  0  0  0  0  0  0  0  0  0  0  0
    1.5000   -5.1962    0.0000 C   0  0  0  0  0  0  0  0  0  0  0  0
    0.7500   -3.8971    0.0000 C   0  0  0  0  0  0  0  0  0  0  0  0
   -0.7500   -3.8971    0.0000 N   0  0  0  0  0  0  0  0  0  0  0  0
   -1.5000   -5.1962    0.0000 C   0  0  0  0  0  0  0  0  0  0  0  0
   -0.7500   -6.4952    0.0000 C   0  0  0  0  0  0  0  0  0  0  0  0
    0.7500   -6.4952    0.0000 N   0  0  0  0  0  0  0  0  0  0  0  0
   -8.4119    4.8508    0.0000 O   0  0  0  0  0  0  0  0  0  0  0  0
   -7.9484    6.2773    0.0000 C   0  0  0  0  0  0  0  0  0  0  0  0
   -6.5218    6.7409    0.0000 N   0  0  0  0  0  0  0  0  0  0  0  0
   -6.5218    8.2409    0.0000 C   0  0  0  0  0  0  0  0  0  0  0  0
   -7.9484    8.7044    0.0000 C   0  0  0  0  0  0  0  0  0  0  0  0
   -8.8301    7.4909    0.0000 O   0  0  0  0  0  0  0  0  0  0  0  0
    1.5000   -7.7942    0.0000 C   0  0  0  0  0  0  0  0  0  0  0  0
    3.0000   -7.7942    0.0000 C   0  0  0  0  0  0  0  0  0  0  0  0
    3.7500   -9.0933    0.0000 N   0  0  0  0  0  0  0  0  0  0  0  0
    3.0000  -10.3923    0.0000 C   0  0  0  0  0  0  0  0  0  0  0  0
    1.5000  -10.3923    0.0000 C   0  0  0  0  0  0  0  0  0  0  0  0
    0.7500   -9.0933    0.0000 N   0  0  0  0  0  0  0  0  0  0  0  0
  2  3  2  0
  3  4  1  0
  4  5  1  0
  5  6  2  0
  6  2  1  0
  7  8  2  0
  8  9  1  0
  9 10  1  0
 10 11  2  0
 11  7  1  0
 13 14  2  0
 14 15  1  0
 15 16  1  0
 16 17  2  0
 17 13  1  0
 18 19  2  0
 19 20  1  0
 20 21  1  0
 21 22  2  0
 22 18  1  0
 23 24  1  0
 24 25  1  0
 25 26  1  0
 26 27  1  0
 27 28  1  0
 28 23  1  0
 29 30  2  0
 30 31  1  0
 31 32  1  0
 32 33  1  0
 33 34  1  0
 34 30  1  0
 35 36  1  0
 36 37  1  0
 37 38  1  0
 38 39  1  0
 39 40  1  0
 40 35  1  0
  1  3  1  0
  1 21  1  0
  1 25  1  0
  2 10  1  0
  5 12  1  0
  7 16  1  0
 13 31  1  0
 28 35  1  0
M  END
$$$$

     RDKit          2D

 36 41  0  0  0  0  0  0  0  0999 V2000
    2.3524   -8.8379    0.0000 C   0  0  0  0  0  0  0  0  0  0  0  0
    0.8606   -8.6811    0.0000 C   0  0  0  0  0  0  0  0  0  0  0  0
    0.5488   -7.2139    0.0000 N   0  0  0  0  0  0  0  0  0  0  0  0
    1.8478   -6.4639    0.0000 N   0  0  0  0  0  0  0  0  0  0  0  0
    2.9625   -7.4676    0.0000 C   0  0  0  0  0  0  0  0  0  0  0  0
    3.3037   -4.2221    0.0000 C   0  0  0  0  0  0  0  0  0  0  0  0
    2.9918   -2.7549    0.0000 C   0  0  0  0  0  0  0  0  0  0  0  0
    1.5000   -2.5981    0.0000 C   0  0  0  0  0  0  0  0  0  0  0  0
    0.8899   -3.9684    0.0000 O   0  0  0  0  0  0  0  0  0  0  0  0
    2.0046   -4.9721    0.0000 C   0  0  0  0  0  0  0  0  0  0  0  0
    3.1024  -10.1369    0.0000 C   0  0  0  0  0  0  0  0  0  0  0  0
    1.5000    0.0000    0.0000 C   0  0  0  0  0  0  0  0  0  0  0  0
    0.7500   -1.2990    0.0000 C   0  0  0  0  0  0  0  0  0  0  0  0
   -0.7500   -1.2990    0.0000 C   0  0  0  0  0  0  0  0  0  0  0  0
   -1.5000    0.0000    0.0000 C   0  0  0  0  0  0  0  0  0  0  0  0
   -0.7500    1.2990    0.0000 C   0  0  0  0  0  0  0  0  0  0  0  0
    0.7500    1.2990    0.0000 C   0  0  0  0  0  0  0  0  0  0  0  0
   -3.7500   -1.2990    0.0000 C   0  0  0  0  0  0  0  0  0  0  0  0
   -5.2500   -1.2990    0.0000 C   0  0  0  0  0  0  0  0  0  0  0  0
   -6.0000    0.0000    0.0000 N   0  0  0  0  0  0  0  0  0  0  0  0
   -5.2500    1.2990    0.0000 C   0  0  0  0  0  0  0  0  0  0  0  0
   -3.7500    1.2990    0.0000 C   0  0  0  0  0  0  0  0  0  0  0  0
   -3.0000    0.0000    0.0000 N   0  0  0  0  0  0  0  0  0  0  0  0
    2.3524  -11.4360    0.0000 C   0  0  0  0  0  0  0  0  0  0  0  0
    0.8524  -11.4360    0.0000 C   0  0  0  0  0  0  0  0  0  0  0  0
    0.1024  -12.7350    0.0000 N   0  0  0  0  0  0  0  0  0  0  0  0
    0.8524  -14.0340    0.0000 C   0  0  0  0  0  0  0  0  0  0  0  0
    2.3524  -14.0340    0.0000 C   0  0  0  0  0  0  0  0  0  0  0  0
    3.1024  -12.7350    0.0000 N   0  0  0  0  0  0  0  0  0  0  0  0
   -6.0000   -2.5981    0.0000 O   0  0  0  0  0  0  0  0  0  0  0  0
    4.6024  -12.7350    0.0000 C   0  0  0  0  0  0  0  0  0  0  0  0
   -7.5000   -2.5981    0.0000 C   0  0  0  0  0  0  0  0  0  0  0  0
   -8.3817   -3.8116    0.0000 C   0  0  0  0  0  0  0  0  0  0  0  0
   -9.8083   -3.3481    0.0000 N   0  0  0  0  0  0  0  0  0  0  0  0
   -9.8083   -1.8481    0.0000 N   0  0  0  0  0  0  0  0  0  0  0  0
   -8.3817   -1.3846    0.0000 C   0  0  0  0  0  0  0  0  0  0  0  0
  1  2  1  0
  2  3  2  0
  3  4  1  0
  4  5  1  0
  5  1  2  0
  6  7  1  0
  7  8  2  0
  8  9  1  0
  9 10  1  0
 10  6  2  0
 12 13  2  0
 13 14  1  0
 14 15  2  0
 15 16  1  0
 16 17  2  0
 17 12  1  0
 18 19  1  0
 19 20  1  0
 20 21  1  0
 21 22  1  0
 22 23  1  0
 23 18  1  0
 24 25  1  0
 25 26  1  0
 26 27  1  0
 27 28  1  0
 28 29  1  0
 29 24  1  0
 32 33  1  0
 33 34  2  0
 34 35  1  0
 35 36  1  0
 36 32  2  0
  4 10  1  0
  1 11  1  0
  8 13  1  0
 11 24  1  0
 15 23  1  0
 19 30  1  0
 29 31  1  0
 30 32  1  0
M  END
$$$$

     RDKit          2D

 45 51  0  0  0  0  0  0  0  0999 V2000
   -0.8899   -3.9684    0.0000 C   0  0  0  0  0  0  0  0  0  0  0  0
   -2.0046   -4.9721    0.0000 C   0  0  0  0  0  0  0  0  0  0  0  0
   -3.3037   -4.2221    0.0000 C   0  0  0  0  0  0  0  0  0  0  0  0
   -2.9918   -2.7549    0.0000 O   0  0  0  0  0  0  0  0  0  0  0  0
   -1.5000   -2.5981    0.0000 C   0  0  0  0  0  0  0  0  0  0  0  0
    1.5000    0.0000    0.0000 C   0  0  0  0  0  0  0  0  0  0  0  0
    0.7500   -1.2990    0.0000 C   0  0  0  0  0  0  0  0  0  0  0  0
   -0.7500   -1.2990    0.0000 N   0  0  0  0  0  0  0  0  0  0  0  0
   -1.5000    0.0000    0.0000 C   0  0  0  0  0  0  0  0  0  0  0  0
   -0.7500    1.2990    0.0000 C   0  0  0  0  0  0  0  0  0  0  0  0
    0.7500    1.2990    0.0000 N   0  0  0  0  0  0  0  0  0  0  0  0
    3.7500   -1.2990    0.0000 O   0  0  0  0  0  0  0  0  0  0  0  0
    3.0000    0.0000    0.0000 N   0  0  0  0  0  4  0  0  0  0  0  0
    3.7500    1.2990    0.0000 O   0  0  0  0  0  1  0  0  0  0  0  0
    4.6740    4.8322    0.0000 O   0  0  0  0  0  0  0  0  0  0  0  0
    3.3037    4.2221    0.0000 C   0  0  0  0  0  0  0  0  0  0  0  0
    2.0046    4.9721    0.0000 N   0  0  0  0  0  0  0  0  0  0  0  0
    0.8899    3.9684    0.0000 C   0  0  0  0  0  0  0  0  0  0  0  0
    1.5000    2.5981    0.0000 C   0  0  0  0  0  0  0  0  0  0  0  0
    2.9918    2.7549    0.0000 O   0  0  0  0  0  0  0  0  0  0  0  0
    3.0000   -5.1962    0.0000 C   0  0  0  0  0  0  0  0  0  0  0  0
    1.5000   -5.1962    0.0000 C   0  0  0  0  0  0  0  0  0  0  0  0
    0.7500   -3.8971    0.0000 C   0  0  0  0  0  0  0  0  0  0  0  0
    1.5000   -2.5981    0.0000 C   0  0  0  0  0  0  0  0  0  0  0  0
    3.0000   -2.5981    0.0000 C   0  0  0  0  0  0  0  0  0  0  0  0
    3.7500   -3.8971    0.0000 C   0  0  0  0  0  0  0  0  0  0  0  0
    1.3601   -7.8655    0.0000 C   0  0  0  0  0  0  0  0  0  0  0  0
    0.7500   -6.4952    0.0000 C   0  0  0  0  0  0  0  0  0  0  0  0
   -0.7418   -6.6520    0.0000 N   0  0  0  0  0  0  0  0  0  0  0  0
   -1.0537   -8.1192    0.0000 C   0  0  0  0  0  0  0  0  0  0  0  0
    0.2454   -8.8692    0.0000 N   0  0  0  0  0  0  0  0  0  0  0  0
   -4.6740   -4.8322    0.0000 C   0  0  0  0  0  0  0  0  0  0  0  0
   -4.9858   -6.2994    0.0000 C   0  0  0  0  0  0  0  0  0  0  0  0
   -6.4776   -6.4562    0.0000 N   0  0  0  0  0  0  0  0  0  0  0  0
   -7.0877   -5.0859    0.0000 C   0  0  0  0  0  0  0  0  0  0  0  0
   -5.9730   -4.0822    0.0000 N   0  0  0  0  0  0  0  0  0  0  0  0
   -2.5149   -7.1023    0.0000 O   0  0  0  0  0  0  0  0  0  0  0  0
   -3.9821   -7.4141    0.0000 N   0  0  0  0  0  4  0  0  0  0  0  0
   -4.4457   -8.8407    0.0000 O   0  0  0  0  0  1  0  0  0  0  0  0
    5.2982   -7.3745    0.0000 C   0  0  0  0  0  0  0  0  0  0  0  0
    3.8310   -7.0627    0.0000 C   0  0  0  0  0  0  0  0  0  0  0  0
    2.8273   -8.1774    0.0000 N   0  0  0  0  0  0  0  0  0  0  0  0
    3.2909   -9.6040    0.0000 C   0  0  0  0  0  0  0  0  0  0  0  0
    4.7581   -9.9158    0.0000 C   0  0  0  0  0  0  0  0  0  0  0  0
    5.7618   -8.8011    0.0000 N   0  0  0  0  0  0  0  0  0  0  0  0
  1  2  1  0
  2  3  2  0
  3  4  1  0
  4  5  1  0
  5  1  2  0
  6  7  1  0
  7  8  1  0
  8  9  1  0
  9 10  1  0
 10 11  1  0
 11  6  1  0
 12 13  2  0
 13 14  1  0
 15 16  2  0
 16 17  1  0
 17 18  1  0
 18 19  1  0
 19 20  1  0
 20 16  1  0
 21 22  2  0
 22 23  1  0
 23 24  2  0
 24 25  1  0
 25 26  2  0
 26 21  1  0
 27 28  2  0
 28 29  1  0
 29 30  1  0
 30 31  2  0
 31 27  1  0
 32 33  2  0
 33 34  1  0
 34 35  1  0
 35 36  2  0
 36 32  1  0
 37 38  2  0
 38 39  1  0
 40 41  1  0
 41 42  1  0
 42 43  1  0
 43 44  1  0
 44 45  1  0
 45 40  1  0
  5  8  1  0
  3 32  1  0
  6 13  1  0
 11 19  1  0
  7 24  1  0
 22 28  1  0
 27 42  1  0
 33 38  1  0
M  CHG  4  13   1  14  -1  38   1  39  -1
M  RAD  2  13   2  38   2
M  END
$$$$
