
     RDKit          2D

103113  0  0  0  0  0  0  0  0999 V2000
   -8.1062   -4.1633    0.0000 C   0  0  0  0  0  0  0  0  0  0  0  0
   -8.2183   -5.6591    0.0000 C   0  0  0  0  0  0  0  0  0  0  0  0
   -6.9790   -6.5041    0.0000 C   0  0  0  0  0  0  0  0  0  0  0  0
   -7.0910   -7.9999    0.0000 C   0  0  0  0  0  0  0  0  0  0  0  0
   -5.6275   -5.8532    0.0000 C   0  0  0  0  0  0  0  0  0  0  0  0
   -5.5154   -4.3574    0.0000 C   0  0  0  0  0  0  0  0  0  0  0  0
   -6.7548   -3.5125    0.0000 C   0  0  0  0  0  0  0  0  0  0  0  0
   -3.0367   -3.1226    0.0000 N   0  0  0  0  0  0  0  0  0  0  0  0
   -3.3705   -4.5850    0.0000 C   0  0  0  0  0  0  0  0  0  0  0  0
   -3.0367   -6.0474    0.0000 C   0  0  0  0  0  0  0  0  0  0  0  0
   -4.3881   -6.6982    0.0000 C   0  0  0  0  0  0  0  0  0  0  0  0
   -2.1015   -7.2201    0.0000 C   0  0  0  0  0  3  0  0  0  0  0  0
   -0.7500   -7.8710    0.0000 O   0  0  0  0  0  0  0  0  0  0  0  0
    0.7500   -7.8710    0.0000 C   0  0  0  0  0  0  0  0  0  0  0  0
    2.1015   -7.2201    0.0000 C   0  0  0  0  0  0  0  0  0  0  0  0
    3.0367   -6.0474    0.0000 C   0  0  0  0  0  0  0  0  0  0  0  0
    3.3705   -4.5850    0.0000 C   0  0  0  0  0  0  0  0  0  0  0  0
    3.0367   -3.1226    0.0000 C   0  0  0  0  0  0  0  0  0  0  0  0
    4.3881   -2.4718    0.0000 C   0  0  0  0  0  0  0  0  0  0  0  0
    2.1015   -1.9499    0.0000 O   0  0  0  0  0  0  0  0  0  0  0  0
    0.7500   -1.2990    0.0000 C   0  0  0  0  0  0  0  0  0  0  0  0
    1.5000    0.0000    0.0000 C   0  0  0  0  0  0  0  0  0  0  0  0
    0.7500    1.2990    0.0000 C   0  0  0  0  0  0  0  0  0  0  0  0
   -0.7500    1.2990    0.0000 C   0  0  0  0  0  0  0  0  0  0  0  0
   -1.5000    0.0000    0.0000 C   0  0  0  0  0  0  0  0  0  0  0  0
   -0.7500   -1.2990    0.0000 C   0  0  0  0  0  0  0  0  0  0  0  0
   -2.1015   -1.9499    0.0000 C   0  0  0  0  0  0  0  0  0  0  0  0
   -3.0367   -0.7771    0.0000 O   0  0  0  0  0  0  0  0  0  0  0  0
   -7.0910   -1.1701    0.0000 C   0  0  0  0  0  3  0  0  0  0  0  0
   -6.9790   -2.6659    0.0000 C   0  0  0  0  0  0  0  0  0  0  0  0
   -5.6275   -3.3168    0.0000 C   0  0  0  0  0  0  0  0  0  0  0  0
   -4.3881   -2.4718    0.0000 C   0  0  0  0  0  3  0  0  0  0  0  0
   -4.5002   -0.9760    0.0000 C   0  0  0  0  0  3  0  0  0  0  0  0
   -5.8517   -0.3252    0.0000 O   0  0  0  0  0  0  0  0  0  0  0  0
   -1.5478   -4.5480    0.0000 N   0  0  0  0  0  0  0  0  0  0  0  0
   -3.0455   -4.4639    0.0000 C   0  0  0  0  0  0  0  0  0  0  0  0
   -4.1640   -5.4634    0.0000 C   0  0  0  0  0  0  0  0  0  0  0  0
   -5.5154   -4.8126    0.0000 C   0  0  0  0  0  0  0  0  0  0  0  0
   -4.2481   -6.9610    0.0000 C   0  0  0  0  0  3  0  0  0  0  0  0
   -3.2485   -8.0795    0.0000 O   0  0  0  0  0  0  0  0  0  0  0  0
   -1.7509   -8.1636    0.0000 C   0  0  0  0  0  0  0  0  0  0  0  0
   -1.4445   -9.6320    0.0000 N   0  0  0  0  0  0  0  0  0  0  0  0
   -0.0197  -10.1008    0.0000 C   0  0  0  0  0  0  0  0  0  0  0  0
    1.0988   -9.1013    0.0000 C   0  0  0  0  0  0  0  0  0  0  0  0
    2.5236   -9.5702    0.0000 C   0  0  0  0  0  0  0  0  0  0  0  0
    3.9485  -10.0390    0.0000 C   0  0  0  0  0  0  0  0  0  0  0  0
    5.3733  -10.5079    0.0000 C   0  0  0  0  0  0  0  0  0  0  0  0
    6.4918   -9.5084    0.0000 C   0  0  0  0  0  0  0  0  0  0  0  0
    7.9166   -9.9772    0.0000 C   0  0  0  0  0  0  0  0  0  0  0  0
    8.2230  -11.4456    0.0000 C   0  0  0  0  0  0  0  0  0  0  0  0
    7.1045  -12.4451    0.0000 C   0  0  0  0  0  0  0  0  0  0  0  0
    5.6797  -11.9763    0.0000 C   0  0  0  0  0  0  0  0  0  0  0  0
    0.7924   -7.6329    0.0000 C   0  0  0  0  0  0  0  0  0  0  0  0
   -0.6324   -7.1641    0.0000 C   0  0  0  0  0  0  0  0  0  0  0  0
   -0.5483   -5.6664    0.0000 C   0  0  0  0  0  0  0  0  0  0  0  0
    0.8675   -5.1710    0.0000 O   0  0  0  0  0  0  0  0  0  0  0  0
   -8.4425   -0.5193    0.0000 S   0  0  0  0  0  0  0  0  0  0  0  0
   -9.2532   -1.7814    0.0000 O   0  0  0  0  0  0  0  0  0  0  0  0
   -7.7917    0.8321    0.0000 O   0  0  0  0  0  0  0  0  0  0  0  0
   -9.7940    0.1315    0.0000 C   0  0  0  0  0  0  0  0  0  0  0  0
   -9.9060    1.6273    0.0000 C   0  0  0  0  0  0  0  0  0  0  0  0
  -11.2575    2.2781    0.0000 C   0  0  0  0  0  0  0  0  0  0  0  0
  -11.3696    3.7740    0.0000 Br  0  0  0  0  0  0  0  0  0  0  0  0
  -12.4969    1.4332    0.0000 C   0  0  0  0  0  0  0  0  0  0  0  0
  -12.3848   -0.0626    0.0000 N   0  0  0  0  0  0  0  0  0  0  0  0
  -11.0333   -0.7135    0.0000 C   0  0  0  0  0  0  0  0  0  0  0  0
  -10.9212   -2.2093    0.0000 N   0  0  0  0  0  0  0  0  0  0  0  0
    1.5000    2.5981    0.0000 C   0  0  0  0  0  4  0  0  0  0  0  0
    0.2010    3.3481    0.0000 C   0  0  0  0  0  0  0  0  0  0  0  0
    2.7990    1.8481    0.0000 C   0  0  0  0  0  0  0  0  0  0  0  0
    4.0981    2.5981    0.0000 C   0  0  0  0  0  0  0  0  0  0  0  0
    2.2500    3.8971    0.0000 C   0  0  0  0  0  0  0  0  0  0  0  0
    3.7500    3.8971    0.0000 O   0  0  0  0  0  0  0  0  0  0  0  0
    1.5000    5.1962    0.0000 O   0  0  0  0  0  0  0  0  0  0  0  0
   -9.3456   -3.3183    0.0000 C   0  0  0  0  0  0  0  0  0  0  0  0
   -9.4166   -1.8200    0.0000 O   0  0  0  0  0  0  0  0  0  0  0  0
  -10.6970   -3.9691    0.0000 C   0  0  0  0  0  0  0  0  0  0  0  0
  -11.9364   -3.1241    0.0000 C   0  0  0  0  0  0  0  0  0  0  0  0
  -10.8091   -5.4649    0.0000 C   0  0  0  0  0  0  0  0  0  0  0  0
   -9.5101   -6.2149    0.0000 C   0  0  0  0  0  0  0  0  0  0  0  0
   -9.2865   -7.6982    0.0000 C   0  0  0  0  0  0  0  0  0  0  0  0
  -10.3068   -8.7978    0.0000 C   0  0  0  0  0  0  0  0  0  0  0  0
   -9.7588  -10.1941    0.0000 C   0  0  0  0  0  0  0  0  0  0  0  0
  -11.8026   -8.6857    0.0000 C   0  0  0  0  0  0  0  0  0  0  0  0
  -12.7202   -9.8723    0.0000 C   0  0  0  0  0  0  0  0  0  0  0  0
  -14.1323   -9.3663    0.0000 C   0  0  0  0  0  3  0  0  0  0  0  0
  -14.0874   -7.8669    0.0000 C   0  0  0  0  0  0  0  0  0  0  0  0
  -15.2740   -6.9494    0.0000 C   0  0  0  0  0  0  0  0  0  0  0  0
  -12.6476   -7.4463    0.0000 C   0  0  0  0  0  0  0  0  0  0  0  0
  -12.2054   -6.0129    0.0000 C   0  0  0  0  0  0  0  0  0  0  0  0
  -12.2995  -11.3121    0.0000 C   0  0  0  0  0  0  0  0  0  0  0  0
  -13.3361  -12.3963    0.0000 C   0  0  0  0  0  3  0  0  0  0  0  0
  -12.9155  -13.8361    0.0000 C   0  0  0  0  0  0  0  0  0  0  0  0
  -13.9521  -14.9203    0.0000 C   0  0  0  0  0  0  0  0  0  0  0  0
  -10.8423  -11.6677    0.0000 N   0  0  0  0  0  0  0  0  0  0  0  0
  -10.4217  -13.1075    0.0000 C   0  0  0  0  0  0  0  0  0  0  0  0
  -11.4582  -14.1917    0.0000 S   0  0  0  0  0  0  0  0  0  0  0  0
   -8.9644  -13.4631    0.0000 C   0  0  0  0  0  0  0  0  0  0  0  0
   -8.5438  -14.9029    0.0000 C   0  0  0  0  0  0  0  0  0  0  0  0
   -7.0865  -15.2586    0.0000 C   0  0  0  0  0  0  0  0  0  0  0  0
   -6.0499  -14.1744    0.0000 C   0  0  0  0  0  0  0  0  0  0  0  0
   -6.4706  -12.7346    0.0000 C   0  0  0  0  0  0  0  0  0  0  0  0
   -7.9278  -12.3789    0.0000 C   0  0  0  0  0  0  0  0  0  0  0  0
  1  2  2  0
  2  3  1  0
  3  4  1  0
  3  5  2  0
  5  6  1  0
  6  7  2  0
  7  1  1  0
  8  9  1  0
  9 10  1  0
 10 11  1  6
 10 12  1  0
 12 13  1  0
 13 14  1  0
 14 15  1  0
 15 16  1  0
 16 17  1  0
 17 18  1  0
 18 19  1  6
 18 20  1  0
 20 21  1  0
 21 22  2  0
 22 23  1  0
 23 24  2  0
 24 25  1  0
 25 26  2  0
 26 27  1  0
 27 28  2  0
 27  8  1  0
 26 21  1  0
 29 30  1  0
 30 31  1  0
 31 32  1  0
 32 33  1  0
 33 34  1  0
 34 29  1  0
 35 36  1  0
 36 37  1  0
 37 38  1  1
 37 39  1  0
 39 40  1  0
 40 41  1  0
 41 42  2  0
 42 43  1  0
 43 44  2  0
 44 45  1  0
 45 46  3  0
 46 47  1  0
 47 48  2  0
 48 49  1  0
 49 50  2  0
 50 51  1  0
 51 52  2  0
 44 53  1  0
 53 54  2  0
 54 55  1  0
 55 56  2  0
 55 35  1  0
 54 41  1  0
 52 47  1  0
 57 58  2  0
 57 59  2  0
 57 60  1  0
 60 61  2  0
 61 62  1  0
 62 63  1  0
 62 64  2  0
 64 65  1  0
 65 66  2  0
 66 67  1  0
 66 60  1  0
 68 69  1  0
 68 70  1  0
 70 71  1  0
 68 72  1  0
 72 73  2  0
 72 74  1  0
 75 76  2  0
 75 77  1  0
 77 78  2  0
 79 77  1  6
 79 80  1  0
 80 81  1  0
 81 82  1  0
 82 83  2  0
 82 84  1  0
 84 85  1  6
 85 86  1  0
 86 87  1  0
 87 88  2  0
 87 89  1  0
 89 90  1  6
 90 79  1  0
 89 84  1  0
 91 92  1  0
 92 93  1  0
 93 94  2  0
 95 96  1  0
 96 97  2  0
 96 98  1  0
 98 99  2  0
 99100  1  0
100101  2  0
101102  1  0
102103  2  0
103 98  1  0
  5 11  1  0
  1 75  1  0
  8 32  1  0
 23 68  1  0
 31 38  1  0
 29 57  1  0
 85 91  1  0
 91 95  1  0
M  RAD  8  12   2  29   2  32   2  33   2  39   2  68   2  86   2  92   2
M  END
$$$$

     RDKit          2D

103116  0  0  0  0  0  0  0  0999 V2000
   -2.2500    9.0933    0.0000 C   0  0  0  0  0  0  0  0  0  0  0  0
   -0.7500    9.0933    0.0000 C   0  0  0  0  0  0  0  0  0  0  0  0
    0.0000   10.3923    0.0000 C   0  0  0  0  0  0  0  0  0  0  0  0
    1.5000   10.3923    0.0000 C   0  0  0  0  0  0  0  0  0  0  0  0
   -0.7500   11.6913    0.0000 C   0  0  0  0  0  0  0  0  0  0  0  0
   -2.2500   11.6913    0.0000 C   0  0  0  0  0  0  0  0  0  0  0  0
   -3.0000   10.3923    0.0000 C   0  0  0  0  0  0  0  0  0  0  0  0
   -1.8107   -3.8597    0.0000 N   0  0  0  0  0  0  0  0  0  0  0  0
   -0.7500   -4.9204    0.0000 C   0  0  0  0  0  0  0  0  0  0  0  0
    0.7500   -4.9204    0.0000 C   0  0  0  0  0  0  0  0  0  0  0  0
    1.3240   -6.3062    0.0000 C   0  0  0  0  0  0  0  0  0  0  0  0
    1.8107   -3.8597    0.0000 C   0  0  0  0  0  3  0  0  0  0  0  0
    1.8107   -2.3597    0.0000 O   0  0  0  0  0  0  0  0  0  0  0  0
    0.7500   -1.2990    0.0000 C   0  0  0  0  0  0  0  0  0  0  0  0
    1.5000    0.0000    0.0000 N   0  0  0  0  0  0  0  0  0  0  0  0
    0.7500    1.2990    0.0000 C   0  0  0  0  0  0  0  0  0  0  0  0
   -0.7500    1.2990    0.0000 C   0  0  0  0  0  0  0  0  0  0  0  0
   -1.5000    2.5981    0.0000 C   0  0  0  0  0  0  0  0  0  0  0  0
   -2.2500    3.8971    0.0000 C   0  0  0  0  0  0  0  0  0  0  0  0
   -3.0000    5.1962    0.0000 C   0  0  0  0  0  0  0  0  0  0  0  0
   -2.2500    6.4952    0.0000 C   0  0  0  0  0  0  0  0  0  0  0  0
   -3.0000    7.7942    0.0000 C   0  0  0  0  0  0  0  0  0  0  0  0
   -4.5000    7.7942    0.0000 C   0  0  0  0  0  0  0  0  0  0  0  0
   -5.2500    6.4952    0.0000 C   0  0  0  0  0  0  0  0  0  0  0  0
   -4.5000    5.1962    0.0000 C   0  0  0  0  0  0  0  0  0  0  0  0
   -1.5000    0.0000    0.0000 C   0  0  0  0  0  0  0  0  0  0  0  0
   -0.7500   -1.2990    0.0000 C   0  0  0  0  0  0  0  0  0  0  0  0
   -1.8107   -2.3597    0.0000 C   0  0  0  0  0  0  0  0  0  0  0  0
   -3.1965   -1.7857    0.0000 O   0  0  0  0  0  0  0  0  0  0  0  0
   -5.7723   -4.0946    0.0000 C   0  0  0  0  0  0  0  0  0  0  0  0
   -5.9681   -5.5818    0.0000 C   0  0  0  0  0  0  0  0  0  0  0  0
   -4.7781   -6.4949    0.0000 C   0  0  0  0  0  0  0  0  0  0  0  0
   -4.9739   -7.9821    0.0000 C   0  0  0  0  0  0  0  0  0  0  0  0
   -3.3923   -5.9209    0.0000 C   0  0  0  0  0  0  0  0  0  0  0  0
   -3.1965   -4.4337    0.0000 C   0  0  0  0  0  0  0  0  0  0  0  0
   -4.3865   -3.5206    0.0000 C   0  0  0  0  0  0  0  0  0  0  0  0
    0.3736   -7.1731    0.0000 C   0  0  0  0  0  0  0  0  0  0  0  0
   -0.8164   -6.2600    0.0000 C   0  0  0  0  0  0  0  0  0  0  0  0
   -2.2022   -6.8340    0.0000 C   0  0  0  0  0  0  0  0  0  0  0  0
   -2.3980   -8.3212    0.0000 C   0  0  0  0  0  0  0  0  0  0  0  0
   -3.7838   -8.8952    0.0000 C   0  0  0  0  0  0  0  0  0  0  0  0
   -6.9624   -3.1815    0.0000 C   0  0  0  0  0  0  0  0  0  0  0  0
   -6.7666   -1.6943    0.0000 O   0  0  0  0  0  0  0  0  0  0  0  0
   -7.9566   -0.7812    0.0000 C   0  0  0  0  0  0  0  0  0  0  0  0
   -7.7608    0.7060    0.0000 O   0  0  0  0  0  0  0  0  0  0  0  0
   -9.3424   -1.3552    0.0000 C   0  0  0  0  0  0  0  0  0  0  0  0
  -10.7282   -1.9292    0.0000 O   0  0  0  0  0  0  0  0  0  0  0  0
   -9.5382   -2.8423    0.0000 C   0  0  0  0  0  0  0  0  0  0  0  0
  -10.9240   -3.4164    0.0000 C   0  0  0  0  0  0  0  0  0  0  0  0
  -12.1141   -2.5032    0.0000 C   0  0  0  0  0  0  0  0  0  0  0  0
  -11.1198   -4.9035    0.0000 C   0  0  0  0  0  0  0  0  0  0  0  0
  -12.5056   -5.4776    0.0000 C   0  0  0  0  0  0  0  0  0  0  0  0
  -12.8303   -4.0131    0.0000 C   0  0  0  0  0  0  0  0  0  0  0  0
  -11.6997   -6.7427    0.0000 C   0  0  0  0  0  0  0  0  0  0  0  0
  -12.3923   -8.0732    0.0000 C   0  0  0  0  0  0  0  0  0  0  0  0
  -13.8909   -8.1386    0.0000 C   0  0  0  0  0  0  0  0  0  0  0  0
  -14.5835   -9.4691    0.0000 O   0  0  0  0  0  0  0  0  0  0  0  0
  -14.6968   -6.8735    0.0000 C   0  0  0  0  0  0  0  0  0  0  0  0
  -15.8869   -5.9604    0.0000 C   0  0  0  0  0  0  0  0  0  0  0  0
  -15.8027   -7.8869    0.0000 C   0  0  0  0  0  0  0  0  0  0  0  0
  -14.0042   -5.5430    0.0000 C   0  0  0  0  0  0  0  0  0  0  0  0
   -9.9298   -5.8167    0.0000 C   0  0  0  0  0  0  0  0  0  0  0  0
   -8.5440   -5.2427    0.0000 C   0  0  0  0  0  0  0  0  0  0  0  0
   -8.3482   -3.7555    0.0000 C   0  0  0  0  0  0  0  0  0  0  0  0
   -7.1581   -4.6686    0.0000 C   0  0  0  0  0  0  0  0  0  0  0  0
  -17.2333   -7.4358    0.0000 C   0  0  0  0  0  0  0  0  0  0  0  0
  -17.5580   -5.9714    0.0000 O   0  0  0  0  0  0  0  0  0  0  0  0
  -18.3392   -8.4492    0.0000 C   0  0  0  0  0  0  0  0  0  0  0  0
  -19.7698   -7.9982    0.0000 C   0  0  0  0  0  0  0  0  0  0  0  0
  -20.8757   -9.0115    0.0000 C   0  0  0  0  0  0  0  0  0  0  0  0
  -22.3063   -8.5605    0.0000 C   0  0  0  0  0  0  0  0  0  0  0  0
  -23.4122   -9.5739    0.0000 C   0  0  0  0  0  0  0  0  0  0  0  0
  -24.8428   -9.1228    0.0000 C   0  0  0  0  0  0  0  0  0  0  0  0
  -25.9487  -10.1362    0.0000 C   0  0  0  0  0  0  0  0  0  0  0  0
  -25.6241  -11.6006    0.0000 O   0  0  0  0  0  0  0  0  0  0  0  0
  -27.3793   -9.6851    0.0000 O   0  0  0  0  0  0  0  0  0  0  0  0
    3.7243   -5.3119    0.0000 C   0  0  0  0  0  0  0  0  0  0  0  0
    2.8112   -6.5020    0.0000 C   0  0  0  0  0  0  0  0  0  0  0  0
    3.3852   -7.8878    0.0000 C   0  0  0  0  0  0  0  0  0  0  0  0
    4.8724   -8.0836    0.0000 C   0  0  0  0  0  0  0  0  0  0  0  0
    5.7855   -6.8935    0.0000 C   0  0  0  0  0  0  0  0  0  0  0  0
    5.2115   -5.5077    0.0000 C   0  0  0  0  0  0  0  0  0  0  0  0
   -0.5636   -9.7395    0.0000 C   0  0  0  0  0  0  0  0  0  0  0  0
    0.5173  -10.5689    0.0000 C   0  0  0  0  0  0  0  0  0  0  0  0
    1.1721  -11.0606    0.0000 N   0  0  0  0  0  4  0  0  0  0  0  0
    2.3621  -11.9738    0.0000 C   0  0  0  0  0  0  0  0  0  0  0  0
   -0.2138  -11.6347    0.0000 C   0  0  0  0  0  0  0  0  0  0  0  0
   -1.4038  -10.7215    0.0000 C   0  0  0  0  0  0  0  0  0  0  0  0
   -1.2080   -9.2343    0.0000 C   0  0  0  0  0  0  0  0  0  0  0  0
    0.0865   -9.3543    0.0000 C   0  0  0  0  0  0  0  0  0  0  0  0
    0.7211   -9.8413    0.0000 C   0  0  0  0  0  0  0  0  0  0  0  0
    0.0000   12.9904    0.0000 C   0  0  0  0  0  0  0  0  0  0  0  0
    1.5000   12.9904    0.0000 C   0  0  0  0  0  0  0  0  0  0  0  0
    2.2500   14.2894    0.0000 C   0  0  0  0  0  0  0  0  0  0  0  0
    1.5000   15.5885    0.0000 C   0  0  0  0  0  0  0  0  0  0  0  0
    0.0000   15.5885    0.0000 C   0  0  0  0  0  0  0  0  0  0  0  0
   -0.7500   14.2894    0.0000 C   0  0  0  0  0  0  0  0  0  0  0  0
   -2.2500   14.2894    0.0000 C   0  0  0  0  0  0  0  0  0  0  0  0
   -3.0000   15.5885    0.0000 C   0  0  0  0  0  0  0  0  0  0  0  0
   -4.5000   15.5885    0.0000 O   0  0  0  0  0  0  0  0  0  0  0  0
   -2.2500   16.8875    0.0000 C   0  0  0  0  0  0  0  0  0  0  0  0
   -3.0000   18.1865    0.0000 O   0  0  0  0  0  0  0  0  0  0  0  0
   -0.7500   16.8875    0.0000 C   0  0  0  0  0  0  0  0  0  0  0  0
  1  2  2  0
  2  3  1  0
  3  4  1  0
  3  5  2  0
  5  6  1  0
  6  7  2  0
  7  1  1  0
  8  9  1  0
  9 10  1  0
 10 11  1  1
 10 12  1  0
 12 13  1  0
 13 14  1  0
 14 15  2  0
 15 16  1  0
 16 17  2  0
 17 18  1  0
 18 19  3  0
 19 20  1  0
 20 21  2  0
 21 22  1  0
 22 23  2  0
 23 24  1  0
 24 25  2  0
 17 26  1  0
 26 27  2  0
 27 28  1  0
 28 29  2  0
 28  8  1  0
 27 14  1  0
 25 20  1  0
 30 31  2  0
 31 32  1  0
 32 33  1  0
 32 34  2  0
 34 35  1  0
 35 36  2  0
 36 30  1  0
 37 38  1  0
 38 39  1  0
 39 40  1  0
 40 41  1  0
 42 43  1  0
 43 44  1  0
 44 45  2  0
 44 46  1  0
 46 47  1  0
 47 48  1  0
 48 49  1  0
 49 50  2  0
 49 51  1  0
 51 52  1  0
 52 53  1  0
 52 54  1  0
 54 55  2  0
 55 56  1  0
 56 57  2  0
 56 58  1  0
 58 59  1  0
 58 60  1  0
 58 61  1  0
 51 62  1  0
 62 63  1  0
 63 64  1  0
 64 65  1  0
 64 42  1  0
 48 46  1  0
 61 52  1  0
 64 48  1  0
 66 67  2  0
 66 68  1  0
 68 69  1  0
 69 70  1  0
 70 71  1  0
 71 72  1  0
 72 73  1  0
 73 74  1  0
 74 75  2  0
 74 76  1  0
 77 78  2  0
 78 79  1  0
 79 80  2  0
 80 81  1  0
 81 82  2  0
 82 77  1  0
 83 84  1  0
 84 85  1  0
 85 86  1  0
 85 87  1  0
 87 88  1  0
 88 89  1  0
 89 90  1  0
 90 91  1  0
 89 83  1  0
 91 85  1  0
 92 93  2  0
 93 94  1  0
 94 95  2  0
 95 96  1  0
 96 97  2  0
 97 98  1  0
 98 99  1  0
 99100  1  0
 99101  1  0
101102  1  0
101103  1  0
 97 92  1  0
103 96  1  0
  1 22  1  0
  5 92  1  0
  8 35  1  0
 11 78  1  0
 34 39  1  0
 30 42  1  0
 37 83  1  0
 60 66  1  0
M  CHG  1  85   1
M  RAD  1  12   2
M  END
$$$$

     RDKit          2D

124135  0  0  0  0  0  0  0  0999 V2000
    6.0000   -0.0000    0.0000 N   0  0  0  0  0  0  0  0  0  0  0  0
    5.0869   -1.1900    0.0000 C   0  0  0  0  0  0  0  0  0  0  0  0
    5.2826   -2.6772    0.0000 C   0  0  0  0  0  0  0  0  0  0  0  0
    3.9836   -3.4272    0.0000 C   0  0  0  0  0  0  0  0  0  0  0  0
    6.4727   -3.5903    0.0000 C   0  0  0  0  0  3  0  0  0  0  0  0
    7.9598   -3.3946    0.0000 O   0  0  0  0  0  0  0  0  0  0  0  0
    8.8730   -2.2045    0.0000 C   0  0  0  0  0  0  0  0  0  0  0  0
   10.2588   -2.7785    0.0000 N   0  0  0  0  0  0  0  0  0  0  0  0
   11.4488   -1.8654    0.0000 C   0  0  0  0  0  0  0  0  0  0  0  0
   11.2530   -0.3782    0.0000 C   0  0  0  0  0  0  0  0  0  0  0  0
   12.4431    0.5349    0.0000 C   0  0  0  0  0  0  0  0  0  0  0  0
   13.6331    1.4480    0.0000 C   0  0  0  0  0  0  0  0  0  0  0  0
   14.8231    2.3612    0.0000 C   0  0  0  0  0  0  0  0  0  0  0  0
   16.2090    1.7872    0.0000 C   0  0  0  0  0  0  0  0  0  0  0  0
   17.3990    2.7003    0.0000 C   0  0  0  0  0  0  0  0  0  0  0  0
   17.2032    4.1875    0.0000 C   0  0  0  0  0  0  0  0  0  0  0  0
   15.8174    4.7615    0.0000 C   0  0  0  0  0  0  0  0  0  0  0  0
   14.6273    3.8484    0.0000 C   0  0  0  0  0  0  0  0  0  0  0  0
    9.8672    0.1958    0.0000 C   0  0  0  0  0  0  0  0  0  0  0  0
    8.6772   -0.7174    0.0000 C   0  0  0  0  0  0  0  0  0  0  0  0
    7.4872    0.1958    0.0000 C   0  0  0  0  0  0  0  0  0  0  0  0
    8.2145    1.5077    0.0000 O   0  0  0  0  0  0  0  0  0  0  0  0
   21.5564    0.9782    0.0000 C   0  0  0  0  0  0  0  0  0  0  0  0
   20.3664    0.0651    0.0000 C   0  0  0  0  0  0  0  0  0  0  0  0
   18.9806    0.6391    0.0000 C   0  0  0  0  0  0  0  0  0  0  0  0
   18.7848    2.1263    0.0000 C   0  0  0  0  0  0  0  0  0  0  0  0
   19.9748    3.0394    0.0000 C   0  0  0  0  0  0  0  0  0  0  0  0
   21.3607    2.4654    0.0000 C   0  0  0  0  0  0  0  0  0  0  0  0
    3.0000    2.5981    0.0000 C   0  0  0  0  0  0  0  0  0  0  0  0
    3.7500    1.2990    0.0000 C   0  0  0  0  0  0  0  0  0  0  0  0
    5.2500    1.2990    0.0000 C   0  0  0  0  0  0  0  0  0  0  0  0
    6.0000    2.5981    0.0000 C   0  0  0  0  0  0  0  0  0  0  0  0
    5.2500    3.8971    0.0000 C   0  0  0  0  0  0  0  0  0  0  0  0
    3.7500    3.8971    0.0000 C   0  0  0  0  0  0  0  0  0  0  0  0
    2.6710   -3.5884    0.0000 C   0  0  0  0  0  0  0  0  0  0  0  0
    3.3050   -4.9479    0.0000 C   0  0  0  0  0  0  0  0  0  0  0  0
    3.6932   -6.3968    0.0000 C   0  0  0  0  0  0  0  0  0  0  0  0
    3.8239   -7.8911    0.0000 C   0  0  0  0  0  0  0  0  0  0  0  0
    3.6932   -9.3854    0.0000 C   0  0  0  0  0  0  0  0  0  0  0  0
    3.3050  -10.8342    0.0000 C   0  0  0  0  0  0  0  0  0  0  0  0
    2.6710  -12.1937    0.0000 C   0  0  0  0  0  0  0  0  0  0  0  0
    1.8107  -13.4224    0.0000 C   0  0  0  0  0  0  0  0  0  0  0  0
    0.7500  -14.4831    0.0000 C   0  0  0  0  0  0  0  0  0  0  0  0
   -0.4787  -15.3435    0.0000 C   0  0  0  0  0  0  0  0  0  0  0  0
   -1.8382  -15.9774    0.0000 C   0  0  0  0  0  0  0  0  0  0  0  0
   -3.2871  -16.3656    0.0000 C   0  0  0  0  0  0  0  0  0  0  0  0
   -4.7814  -16.4964    0.0000 C   0  0  0  0  0  0  0  0  0  0  0  0
   -6.2757  -16.3656    0.0000 C   0  0  0  0  0  0  0  0  0  0  0  0
   -7.7246  -15.9774    0.0000 C   0  0  0  0  0  0  0  0  0  0  0  0
   -9.0840  -15.3435    0.0000 C   0  0  0  0  0  0  0  0  0  0  0  0
   -9.8340  -16.6425    0.0000 C   0  0  0  0  0  0  0  0  0  0  0  0
  -10.3127  -14.4831    0.0000 C   0  0  0  0  0  0  0  0  0  0  0  0
  -11.2769  -15.6322    0.0000 O   0  0  0  0  0  0  0  0  0  0  0  0
  -11.3734  -13.4224    0.0000 C   0  0  0  0  0  0  0  0  0  0  0  0
  -12.5225  -14.3866    0.0000 C   0  0  0  0  0  0  0  0  0  0  0  0
  -12.2338  -12.1937    0.0000 C   0  0  0  0  0  0  0  0  0  0  0  0
  -13.5328  -12.9437    0.0000 C   0  0  0  0  0  0  0  0  0  0  0  0
  -12.8677  -10.8342    0.0000 O   0  0  0  0  0  0  0  0  0  0  0  0
  -13.2559   -9.3854    0.0000 C   0  0  0  0  0  0  0  0  0  0  0  0
  -14.7331   -9.6458    0.0000 O   0  0  0  0  0  0  0  0  0  0  0  0
  -13.3867   -7.8911    0.0000 C   0  0  0  0  0  0  0  0  0  0  0  0
  -13.2559   -6.3968    0.0000 C   0  0  0  0  0  0  0  0  0  0  0  0
  -14.7331   -6.1363    0.0000 O   0  0  0  0  0  0  0  0  0  0  0  0
  -12.8677   -4.9479    0.0000 C   0  0  0  0  0  0  0  0  0  0  0  0
  -12.2338   -3.5884    0.0000 C   0  0  0  0  0  0  0  0  0  0  0  0
  -13.5328   -2.8384    0.0000 O   0  0  0  0  0  0  0  0  0  0  0  0
  -11.3734   -2.3597    0.0000 C   0  0  0  0  0  0  0  0  0  0  0  0
  -10.3127   -1.2990    0.0000 C   0  0  0  0  0  0  0  0  0  0  0  0
   -9.0840   -0.4387    0.0000 C   0  0  0  0  0  0  0  0  0  0  0  0
   -9.8340    0.8604    0.0000 O   0  0  0  0  0  0  0  0  0  0  0  0
   -7.7246    0.1953    0.0000 C   0  0  0  0  0  0  0  0  0  0  0  0
   -8.2376    1.6048    0.0000 O   0  0  0  0  0  0  0  0  0  0  0  0
   -6.2757    0.5835    0.0000 C   0  0  0  0  0  0  0  0  0  0  0  0
   -4.7814    0.7142    0.0000 C   0  0  0  0  0  0  0  0  0  0  0  0
   -4.7814    2.2142    0.0000 O   0  0  0  0  0  0  0  0  0  0  0  0
   -3.2871    0.5835    0.0000 C   0  0  0  0  0  0  0  0  0  0  0  0
   -1.5000    0.0000    0.0000 C   0  0  0  0  0  0  0  0  0  0  0  0
   -2.9554   -0.3630    0.0000 O   0  0  0  0  0  0  0  0  0  0  0  0
   -0.7500    1.2990    0.0000 C   0  0  0  0  0  0  0  0  0  0  0  0
    0.7500    1.2990    0.0000 C   0  0  0  0  0  0  0  0  0  0  0  0
    1.5000    2.5981    0.0000 O   0  0  0  0  0  0  0  0  0  0  0  0
    1.5000   -0.0000    0.0000 C   0  0  0  0  0  0  0  0  0  0  0  0
    0.7500   -1.2990    0.0000 C   0  0  0  0  0  0  0  0  0  0  0  0
    1.8107   -2.3597    0.0000 C   0  0  0  0  0  0  0  0  0  0  0  0
   -0.7500   -1.2990    0.0000 O   0  0  0  0  0  0  0  0  0  0  0  0
    3.0000   -0.0000    0.0000 C   0  0  0  0  0  0  0  0  0  0  0  0
    3.7500   -1.2990    0.0000 C   0  0  0  0  0  0  0  0  0  0  0  0
    3.0000   -2.5981    0.0000 C   0  0  0  0  0  0  0  0  0  0  0  0
    3.4134   -4.0400    0.0000 C   0  0  0  0  0  0  0  0  0  0  0  0
    2.2265   -2.7910    0.0000 C   0  0  0  0  0  0  0  0  0  0  0  0
    3.9836   -4.9272    0.0000 C   0  0  0  0  0  0  0  0  0  0  0  0
    5.2826   -5.6772    0.0000 C   0  0  0  0  0  0  0  0  0  0  0  0
    5.2826   -7.1772    0.0000 C   0  0  0  0  0  0  0  0  0  0  0  0
    3.9836   -7.9272    0.0000 C   0  0  0  0  0  0  0  0  0  0  0  0
    2.6846   -7.1772    0.0000 C   0  0  0  0  0  0  0  0  0  0  0  0
    5.0817   -4.9272    0.0000 C   0  0  0  0  0  0  0  0  0  0  0  0
    6.5817   -4.9272    0.0000 C   0  0  0  0  0  0  0  0  0  0  0  0
    6.5817   -6.4272    0.0000 C   0  0  0  0  0  0  0  0  0  0  0  0
    5.2826   -4.1772    0.0000 C   0  0  0  0  0  0  0  0  0  0  0  0
    2.6846   -5.6772    0.0000 C   0  0  0  0  0  0  0  0  0  0  0  0
   20.5622   -1.4221    0.0000 C   0  0  0  0  0  0  0  0  0  0  0  0
   19.3722   -2.3352    0.0000 N   0  0  0  0  0  0  0  0  0  0  0  0
   19.5680   -3.8224    0.0000 C   0  0  0  0  0  0  0  0  0  0  0  0
   18.3779   -4.7355    0.0000 Cl  0  0  0  0  0  0  0  0  0  0  0  0
   20.9538   -4.3964    0.0000 C   0  0  0  0  0  0  0  0  0  0  0  0
   21.1496   -5.8836    0.0000 Cl  0  0  0  0  0  0  0  0  0  0  0  0
   22.1438   -3.4833    0.0000 C   0  0  0  0  0  0  0  0  0  0  0  0
   21.9480   -1.9961    0.0000 C   0  0  0  0  0  0  0  0  0  0  0  0
   23.1381   -1.0830    0.0000 Cl  0  0  0  0  0  0  0  0  0  0  0  0
   10.5000    2.5981    0.0000 C   0  0  0  0  0  0  0  0  0  0  0  0
    9.7500    1.2990    0.0000 C   0  0  0  0  0  0  0  0  0  0  0  0
    8.2500    1.2990    0.0000 C   0  0  0  0  0  0  0  0  0  0  0  0
    7.5000    2.5981    0.0000 C   0  0  0  0  0  0  0  0  0  0  0  0
    8.2500    3.8971    0.0000 C   0  0  0  0  0  0  0  0  0  0  0  0
    9.7500    3.8971    0.0000 C   0  0  0  0  0  0  0  0  0  0  0  0
    1.5000   -1.5000    0.0000 C   0  0  0  0  0  0  0  0  0  0  0  0
    1.5000   -0.0000    0.0000 C   0  0  0  0  0  0  0  0  0  0  0  0
    1.5000    1.5000    0.0000 C   0  0  0  0  0  0  0  0  0  0  0  0
    0.0000   -0.0000    0.0000 N   0  0  0  0  0  0  0  0  0  0  0  0
   -0.7500    1.2990    0.0000 C   0  0  0  0  0  0  0  0  0  0  0  0
   -2.2500    1.2990    0.0000 C   0  0  0  0  0  0  0  0  0  0  0  0
    0.0000    2.5981    0.0000 C   0  0  0  0  0  0  0  0  0  0  0  0
   -0.7500    3.8971    0.0000 C   0  0  0  0  0  0  0  0  0  0  0  0
    0.0000    5.1962    0.0000 O   0  0  0  0  0  0  0  0  0  0  0  0
  1  2  1  0
  2  3  1  0
  3  4  1  1
  3  5  1  0
  5  6  1  0
  6  7  1  0
  7  8  2  0
  8  9  1  0
  9 10  2  0
 10 11  1  0
 11 12  3  0
 12 13  1  0
 13 14  2  0
 14 15  1  0
 15 16  2  0
 16 17  1  0
 17 18  2  0
 10 19  1  0
 19 20  2  0
 20 21  1  0
 21 22  2  0
 21  1  1  0
 20  7  1  0
 18 13  1  0
 23 24  2  0
 24 25  1  0
 25 26  2  0
 26 27  1  0
 27 28  2  0
 28 23  1  0
 29 30  2  0
 30 31  1  0
 31 32  2  0
 32 33  1  0
 33 34  2  0
 34 29  1  0
 35 36  1  0
 36 37  2  3
 37 38  1  0
 38 39  2  3
 39 40  1  0
 40 41  2  3
 41 42  1  0
 42 43  2  3
 43 44  1  0
 44 45  2  3
 45 46  1  0
 46 47  2  3
 47 48  1  0
 48 49  2  3
 49 50  1  0
 50 51  1  0
 50 52  1  0
 52 53  1  0
 52 54  1  0
 54 55  1  0
 54 56  1  0
 56 57  1  0
 56 58  1  0
 58 59  1  0
 59 60  2  0
 59 61  1  0
 61 62  1  0
 62 63  1  0
 62 64  1  0
 64 65  1  0
 65 66  1  0
 65 67  1  0
 67 68  1  0
 68 69  1  0
 69 70  1  0
 69 71  1  0
 71 72  1  0
 71 73  1  0
 73 74  1  0
 74 75  1  0
 74 76  1  0
 76 77  1  0
 77 78  1  0
 77 79  1  0
 79 80  1  0
 80 81  1  0
 80 82  1  0
 82 83  1  0
 83 84  1  0
 83 85  1  0
 84 35  1  0
 85 77  1  0
 86 87  1  0
 87 88  1  0
 88 89  1  0
 88 90  1  0
 91 92  1  0
 92 93  1  0
 93 94  1  0
 94 95  1  0
 95 96  1  0
 96 97  1  0
 97 98  1  0
 97 99  1  0
 95100  1  0
 99 91  1  0
100 91  1  0
 98 93  1  0
101102  2  0
102103  1  0
103104  1  0
103105  2  0
105106  1  0
105107  1  0
107108  2  0
108109  1  0
108101  1  0
110111  2  0
111112  1  0
112113  2  0
113114  1  0
114115  2  0
115110  1  0
116117  1  0
117118  1  0
117119  1  0
119120  2  3
120121  1  0
120122  1  0
122123  1  0
123124  2  0
 15 26  1  0
  1 31  1  0
  4 91  1  0
 24101  1  0
 29 81  1  0
 30 86  1  0
 32113  1  0
 86117  1  0
M  RAD  1   5   2
M  END
$$$$

     RDKit          2D

 81 87  0  0  0  0  0  0  0  0999 V2000
   -5.9681   -5.5818    0.0000 C   0  0  0  0  0  0  0  0  0  0  0  0
   -4.7781   -6.4949    0.0000 C   0  0  0  0  0  0  0  0  0  0  0  0
   -3.3923   -5.9209    0.0000 C   0  0  0  0  0  0  0  0  0  0  0  0
   -2.2022   -6.8340    0.0000 C   0  0  0  0  0  0  0  0  0  0  0  0
   -3.1965   -4.4337    0.0000 C   0  0  0  0  0  0  0  0  0  0  0  0
   -4.3865   -3.5206    0.0000 C   0  0  0  0  0  0  0  0  0  0  0  0
   -5.7723   -4.0946    0.0000 C   0  0  0  0  0  0  0  0  0  0  0  0
   -1.8107   -3.8597    0.0000 N   0  0  0  0  0  0  0  0  0  0  0  0
   -0.7500   -4.9204    0.0000 C   0  0  0  0  0  0  0  0  0  0  0  0
    0.7500   -4.9204    0.0000 C   0  0  0  0  0  0  0  0  0  0  0  0
    1.3240   -6.3062    0.0000 C   0  0  0  0  0  0  0  0  0  0  0  0
    1.8107   -3.8597    0.0000 C   0  0  0  0  0  3  0  0  0  0  0  0
    1.8107   -2.3597    0.0000 O   0  0  0  0  0  0  0  0  0  0  0  0
    0.7500   -1.2990    0.0000 C   0  0  0  0  0  0  0  0  0  0  0  0
    1.5000    0.0000    0.0000 N   0  0  0  0  0  0  0  0  0  0  0  0
    0.7500    1.2990    0.0000 C   0  0  0  0  0  0  0  0  0  0  0  0
   -0.7500    1.2990    0.0000 C   0  0  0  0  0  0  0  0  0  0  0  0
   -1.5000    2.5981    0.0000 C   0  0  0  0  0  0  0  0  0  0  0  0
   -2.2500    3.8971    0.0000 C   0  0  0  0  0  0  0  0  0  0  0  0
   -3.0000    5.1962    0.0000 C   0  0  0  0  0  0  0  0  0  0  0  0
   -2.2500    6.4952    0.0000 C   0  0  0  0  0  0  0  0  0  0  0  0
   -3.0000    7.7942    0.0000 C   0  0  0  0  0  0  0  0  0  0  0  0
   -4.5000    7.7942    0.0000 C   0  0  0  0  0  0  0  0  0  0  0  0
   -5.2500    6.4952    0.0000 C   0  0  0  0  0  0  0  0  0  0  0  0
   -4.5000    5.1962    0.0000 C   0  0  0  0  0  0  0  0  0  0  0  0
   -1.5000    0.0000    0.0000 C   0  0  0  0  0  0  0  0  0  0  0  0
   -0.7500   -1.2990    0.0000 C   0  0  0  0  0  0  0  0  0  0  0  0
   -1.8107   -2.3597    0.0000 C   0  0  0  0  0  0  0  0  0  0  0  0
   -3.1965   -1.7857    0.0000 O   0  0  0  0  0  0  0  0  0  0  0  0
   -2.2500    9.0933    0.0000 S   0  0  0  0  0  0  0  0  0  0  0  0
   -0.9510    8.3433    0.0000 O   0  0  0  0  0  0  0  0  0  0  0  0
   -3.5490    9.8433    0.0000 O   0  0  0  0  0  0  0  0  0  0  0  0
   -1.5000   10.3923    0.0000 C   0  0  0  0  0  0  0  0  0  0  0  0
    0.0000   10.3923    0.0000 C   0  0  0  0  0  0  0  0  0  0  0  0
    0.7500   11.6913    0.0000 C   0  0  0  0  0  0  0  0  0  0  0  0
    0.0000   12.9904    0.0000 C   0  0  0  0  0  0  0  0  0  0  0  0
   -1.5000   12.9904    0.0000 C   0  0  0  0  0  0  0  0  0  0  0  0
   -2.2500   14.2894    0.0000 C   0  0  0  0  0  0  0  0  0  0  0  0
   -3.7500   14.2894    0.0000 N   0  0  0  0  0  0  0  0  0  0  0  0
   -4.5000   12.9904    0.0000 C   0  0  0  0  0  0  0  0  0  0  0  0
   -3.7500   11.6913    0.0000 C   0  0  0  0  0  0  0  0  0  0  0  0
   -2.2500   11.6913    0.0000 C   0  0  0  0  0  0  0  0  0  0  0  0
    4.4319   -9.8896    0.0000 C   0  0  0  0  0  0  0  0  0  0  0  0
    3.0461  -10.4636    0.0000 C   0  0  0  0  0  0  0  0  0  0  0  0
    1.6603  -11.0377    0.0000 C   0  0  0  0  0  0  0  0  0  0  0  0
    2.4721   -9.0778    0.0000 N   0  0  0  0  0  0  0  0  0  0  0  0
    0.9849   -8.8820    0.0000 C   0  0  0  0  0  0  0  0  0  0  0  0
    0.0718  -10.0721    0.0000 C   0  0  0  0  0  0  0  0  0  0  0  0
    0.4109   -7.4962    0.0000 C   0  0  0  0  0  0  0  0  0  0  0  0
   -1.0763   -7.3004    0.0000 C   0  0  0  0  0  0  0  0  0  0  0  0
   -1.9894   -8.4904    0.0000 O   0  0  0  0  0  0  0  0  0  0  0  0
   -7.3539   -6.1558    0.0000 C   0  0  0  0  0  0  0  0  0  0  0  0
   -8.5440   -5.2427    0.0000 O   0  0  0  0  0  0  0  0  0  0  0  0
   -7.5497   -7.6430    0.0000 C   0  0  0  0  0  0  0  0  0  0  0  0
   -8.9355   -8.2170    0.0000 C   0  0  0  0  0  0  0  0  0  0  0  0
  -10.1256   -7.3038    0.0000 C   0  0  0  0  0  0  0  0  0  0  0  0
  -11.5114   -7.8779    0.0000 C   0  0  0  0  0  0  0  0  0  0  0  0
   -9.9298   -5.8167    0.0000 C   0  0  0  0  0  0  0  0  0  0  0  0
   -6.3597   -8.5561    0.0000 C   0  0  0  0  0  0  0  0  0  0  0  0
   -4.9739   -7.9821    0.0000 O   0  0  0  0  0  0  0  0  0  0  0  0
   -6.5555  -10.0433    0.0000 C   0  0  0  0  0  0  0  0  0  0  0  0
   -7.9413  -10.6173    0.0000 O   0  0  0  0  0  0  0  0  0  0  0  0
   -5.3655  -10.9564    0.0000 N   0  0  0  0  0  0  0  0  0  0  0  0
   -5.5612  -12.4436    0.0000 O   0  0  0  0  0  0  0  0  0  0  0  0
   -4.1907   -2.0334    0.0000 C   0  0  0  0  0  0  0  0  0  0  0  0
   -5.3808   -1.1203    0.0000 C   0  0  0  0  0  0  0  0  0  0  0  0
   -6.5708   -0.2071    0.0000 F   0  0  0  0  0  0  0  0  0  0  0  0
   -4.4676    0.0698    0.0000 F   0  0  0  0  0  0  0  0  0  0  0  0
   -6.2939   -2.3103    0.0000 F   0  0  0  0  0  0  0  0  0  0  0  0
    3.6201  -11.8495    0.0000 N   0  0  0  0  0  4  0  0  0  0  0  0
    2.1557  -12.1741    0.0000 C   0  0  0  0  0  0  0  0  0  0  0  0
    4.8852  -11.0435    0.0000 C   0  0  0  0  0  0  0  0  0  0  0  0
    6.2157  -11.7361    0.0000 C   0  0  0  0  0  0  0  0  0  0  0  0
    6.2812  -13.2347    0.0000 C   0  0  0  0  0  0  0  0  0  0  0  0
    5.0161  -14.0407    0.0000 C   0  0  0  0  0  0  0  0  0  0  0  0
    3.6856  -13.3480    0.0000 C   0  0  0  0  0  0  0  0  0  0  0  0
    5.6219  -10.8028    0.0000 C   0  0  0  0  0  0  0  0  0  0  0  0
    7.0078  -10.2287    0.0000 C   0  0  0  0  0  0  0  0  0  0  0  0
    8.1978  -11.1419    0.0000 C   0  0  0  0  0  0  0  0  0  0  0  0
    9.5836  -10.5678    0.0000 C   0  0  0  0  0  0  0  0  0  0  0  0
   10.7736  -11.4810    0.0000 C   0  0  0  0  0  0  0  0  0  0  0  0
  1  2  2  0
  2  3  1  0
  3  4  1  0
  3  5  2  0
  5  6  1  0
  6  7  2  0
  7  1  1  0
  8  9  1  0
  9 10  1  0
 10 11  1  1
 10 12  1  0
 12 13  1  0
 13 14  1  0
 14 15  2  0
 15 16  1  0
 16 17  2  0
 17 18  1  0
 18 19  3  0
 19 20  1  0
 20 21  2  0
 21 22  1  0
 22 23  2  0
 23 24  1  0
 24 25  2  0
 17 26  1  0
 26 27  2  0
 27 28  1  0
 28 29  2  0
 28  8  1  0
 27 14  1  0
 25 20  1  0
 30 31  2  0
 30 32  2  0
 30 33  1  0
 33 34  2  0
 34 35  1  0
 35 36  2  0
 36 37  1  0
 37 38  2  0
 38 39  1  0
 39 40  2  0
 40 41  1  0
 41 42  2  0
 42 33  1  0
 42 37  1  0
 43 44  1  0
 44 45  1  0
 44 46  1  0
 46 47  2  3
 47 48  1  0
 47 49  1  0
 49 50  1  0
 50 51  2  0
 52 53  2  0
 52 54  1  0
 54 55  1  0
 55 56  1  0
 56 57  1  0
 56 58  1  0
 54 59  1  0
 59 60  1  0
 59 61  1  0
 61 62  1  0
 61 63  2  3
 63 64  1  0
 65 66  1  0
 66 67  1  0
 66 68  1  0
 66 69  1  0
 70 71  1  0
 70 72  1  0
 72 73  1  0
 73 74  1  0
 74 75  1  0
 75 76  1  0
 76 70  1  0
 77 78  1  0
 78 79  1  0
 79 80  1  0
 80 81  1  0
  5  8  1  0
  1 52  1  0
  6 65  1  0
 22 30  1  0
 11 49  1  0
 44 70  1  0
 43 77  1  0
M  CHG  1  70   1
M  RAD  2  12   2  70   2
M  END
$$$$

     RDKit          2D

 95105  0  0  0  0  0  0  0  0999 V2000
   13.3520    6.9345    0.0000 N   0  0  0  0  0  0  0  0  0  0  0  0
   13.8738    5.5281    0.0000 C   0  0  0  0  0  0  0  0  0  0  0  0
   13.2484    4.1648    0.0000 C   0  0  0  0  0  0  0  0  0  0  0  0
   14.2686    3.0652    0.0000 C   0  0  0  0  0  0  0  0  0  0  0  0
   11.8421    3.6430    0.0000 C   0  0  0  0  0  3  0  0  0  0  0  0
   10.4787    4.2684    0.0000 O   0  0  0  0  0  0  0  0  0  0  0  0
    9.9569    5.6747    0.0000 C   0  0  0  0  0  0  0  0  0  0  0  0
    8.4634    5.5347    0.0000 N   0  0  0  0  0  0  0  0  0  0  0  0
    7.5954    6.7580    0.0000 C   0  0  0  0  0  0  0  0  0  0  0  0
    8.2209    8.1214    0.0000 C   0  0  0  0  0  0  0  0  0  0  0  0
    7.3528    9.3447    0.0000 C   0  0  0  0  0  0  0  0  0  0  0  0
    6.4848   10.5681    0.0000 C   0  0  0  0  0  0  0  0  0  0  0  0
    5.6168   11.7914    0.0000 C   0  0  0  0  0  0  0  0  0  0  0  0
    4.1234   11.6514    0.0000 C   0  0  0  0  0  0  0  0  0  0  0  0
    3.2554   12.8747    0.0000 C   0  0  0  0  0  0  0  0  0  0  0  0
    3.8808   14.2381    0.0000 C   0  0  0  0  0  0  0  0  0  0  0  0
    5.3743   14.3781    0.0000 C   0  0  0  0  0  0  0  0  0  0  0  0
    6.2423   13.1548    0.0000 C   0  0  0  0  0  0  0  0  0  0  0  0
    9.7143    8.2614    0.0000 C   0  0  0  0  0  0  0  0  0  0  0  0
   10.5823    7.0381    0.0000 C   0  0  0  0  0  0  0  0  0  0  0  0
   11.9886    7.5599    0.0000 C   0  0  0  0  0  0  0  0  0  0  0  0
   12.0447    9.0589    0.0000 O   0  0  0  0  0  0  0  0  0  0  0  0
   14.4516    7.9547    0.0000 C   0  0  0  0  0  0  0  0  0  0  0  0
   15.8849    7.5126    0.0000 C   0  0  0  0  0  0  0  0  0  0  0  0
   16.9845    8.5328    0.0000 C   0  0  0  0  0  0  0  0  0  0  0  0
   18.4179    8.0907    0.0000 C   0  0  0  0  0  0  0  0  0  0  0  0
   19.5175    9.1110    0.0000 C   0  0  0  0  0  0  0  0  0  0  0  0
   20.9508    8.6688    0.0000 C   0  0  0  0  0  0  0  0  0  0  0  0
   11.9220   -0.1353    0.0000 C   0  0  0  0  0  0  0  0  0  0  0  0
   12.9422   -1.2349    0.0000 C   0  0  0  0  0  0  0  0  0  0  0  0
   14.4046   -0.9011    0.0000 C   0  0  0  0  0  0  0  0  0  0  0  0
   15.4249   -2.0007    0.0000 C   0  0  0  0  0  0  0  0  0  0  0  0
   14.8468    0.5322    0.0000 C   0  0  0  0  0  0  0  0  0  0  0  0
   13.8265    1.6318    0.0000 C   0  0  0  0  0  0  0  0  0  0  0  0
   12.3641    1.2980    0.0000 C   0  0  0  0  0  0  0  0  0  0  0  0
    1.7619   12.7347    0.0000 C   0  0  0  0  0  0  0  0  0  0  0  0
    0.8939   13.9580    0.0000 C   0  0  0  0  0  0  0  0  0  0  0  0
    1.5194   15.3214    0.0000 O   0  0  0  0  0  0  0  0  0  0  0  0
   -0.5995   13.8180    0.0000 O   0  0  0  0  0  0  0  0  0  0  0  0
    1.1365   11.3713    0.0000 C   0  0  0  0  0  0  0  0  0  0  0  0
    2.0045   10.1479    0.0000 N   0  0  0  0  0  0  0  0  0  0  0  0
   -0.3570   11.2312    0.0000 C   0  0  0  0  0  0  0  0  0  0  0  0
   -1.2250   12.4546    0.0000 O   0  0  0  0  0  0  0  0  0  0  0  0
   -0.9824    9.8678    0.0000 O   0  0  0  0  0  0  0  0  0  0  0  0
   16.3092    0.8660    0.0000 N   0  0  0  0  0  0  0  0  0  0  0  0
   17.3294   -0.2335    0.0000 C   0  0  0  0  0  0  0  0  0  0  0  0
   18.7918    0.1002    0.0000 C   0  0  0  0  0  0  0  0  0  0  0  0
   19.2339    1.5336    0.0000 N   0  0  0  0  0  0  0  0  0  0  0  0
   18.2137    2.6332    0.0000 C   0  0  0  0  0  0  0  0  0  0  0  0
   18.6558    4.0665    0.0000 O   0  0  0  0  0  0  0  0  0  0  0  0
   16.7513    2.2994    0.0000 C   0  0  0  0  0  0  0  0  0  0  0  0
   15.2629    2.4859    0.0000 C   0  0  0  0  0  0  0  0  0  0  0  0
   16.6765    3.7975    0.0000 C   0  0  0  0  0  0  0  0  0  0  0  0
   10.4596   -0.4691    0.0000 C   0  0  0  0  0  0  0  0  0  0  0  0
   10.0175   -1.9025    0.0000 C   0  0  0  0  0  0  0  0  0  0  0  0
    8.5551   -2.2362    0.0000 C   0  0  0  0  0  0  0  0  0  0  0  0
    8.1129   -3.6696    0.0000 C   0  0  0  0  0  0  0  0  0  0  0  0
    7.5348   -1.1367    0.0000 C   0  0  0  0  0  0  0  0  0  0  0  0
    7.9769    0.2967    0.0000 C   0  0  0  0  0  0  0  0  0  0  0  0
    9.4393    0.6305    0.0000 C   0  0  0  0  0  0  0  0  0  0  0  0
    3.1476   -2.1380    0.0000 C   0  0  0  0  0  0  0  0  0  0  0  0
    4.1679   -3.2376    0.0000 C   0  0  0  0  0  0  0  0  0  0  0  0
    5.6303   -2.9038    0.0000 C   0  0  0  0  0  0  0  0  0  0  0  0
    6.6505   -4.0034    0.0000 C   0  0  0  0  0  0  0  0  0  0  0  0
    6.0724   -1.4704    0.0000 C   0  0  0  0  0  0  0  0  0  0  0  0
    5.0522   -0.3709    0.0000 C   0  0  0  0  0  0  0  0  0  0  0  0
    3.5898   -0.7046    0.0000 C   0  0  0  0  0  0  0  0  0  0  0  0
    6.8207    5.3626    0.0000 C   0  0  0  0  0  3  0  0  0  0  0  0
    5.8004    6.4622    0.0000 C   0  0  0  0  0  0  0  0  0  0  0  0
    4.3380    6.1284    0.0000 C   0  0  0  0  0  0  0  0  0  0  0  0
    3.8959    4.6950    0.0000 C   0  0  0  0  0  0  0  0  0  0  0  0
    3.3178    7.2279    0.0000 C   0  0  0  0  0  0  0  0  0  0  0  0
    6.3785    3.9292    0.0000 B   0  0  0  0  0  0  0  0  0  0  0  0
    4.9162    3.5954    0.0000 O   0  0  0  0  0  0  0  0  0  0  0  0
    4.4740    2.1621    0.0000 C   0  0  0  0  0  0  0  0  0  0  0  0
    3.0116    1.8283    0.0000 O   0  0  0  0  0  0  0  0  0  0  0  0
    5.4943    1.0625    0.0000 C   0  0  0  0  0  0  0  0  0  0  0  0
    6.9567    1.3963    0.0000 C   0  0  0  0  0  0  0  0  0  0  0  0
    7.3988    2.8296    0.0000 O   0  0  0  0  0  0  0  0  0  0  0  0
    1.6852   -2.4718    0.0000 N   0  0  0  0  0  0  0  0  0  0  0  0
    0.7500   -1.2990    0.0000 C   0  0  0  0  0  0  0  0  0  0  0  0
    1.5000   -0.0000    0.0000 C   0  0  0  0  0  0  0  0  0  0  0  0
    0.7500    1.2990    0.0000 C   0  0  0  0  0  0  0  0  0  0  0  0
   -0.7500    1.2990    0.0000 C   0  0  0  0  0  0  0  0  0  0  0  0
   -1.5000   -0.0000    0.0000 C   0  0  0  0  0  0  0  0  0  0  0  0
   -0.7500   -1.2990    0.0000 C   0  0  0  0  0  0  0  0  0  0  0  0
   -1.6852   -2.4718    0.0000 C   0  0  0  0  0  0  0  0  0  0  0  0
   -1.3515   -3.9342    0.0000 C   0  0  0  0  0  0  0  0  0  0  0  0
    0.0000   -4.5850    0.0000 C   0  0  0  0  0  0  0  0  0  0  0  0
   -0.1121   -6.0808    0.0000 C   0  0  0  0  0  0  0  0  0  0  0  0
    1.1273   -6.9258    0.0000 C   0  0  0  0  0  0  0  0  0  0  0  0
    2.4787   -6.2750    0.0000 C   0  0  0  0  0  0  0  0  0  0  0  0
    3.7181   -7.1199    0.0000 Cl  0  0  0  0  0  0  0  0  0  0  0  0
    2.5908   -4.7792    0.0000 C   0  0  0  0  0  0  0  0  0  0  0  0
    1.3515   -3.9342    0.0000 C   0  0  0  0  0  0  0  0  0  0  0  0
  1  2  1  0
  2  3  1  0
  3  4  1  6
  3  5  1  0
  5  6  1  0
  6  7  1  0
  7  8  2  0
  8  9  1  0
  9 10  2  0
 10 11  1  0
 11 12  3  0
 12 13  1  0
 13 14  2  0
 14 15  1  0
 15 16  2  0
 16 17  1  0
 17 18  2  0
 10 19  1  0
 19 20  2  0
 20 21  1  0
 21 22  2  0
 21  1  1  0
 20  7  1  0
 18 13  1  0
 23 24  1  0
 24 25  1  0
 25 26  1  0
 26 27  1  0
 27 28  1  0
 29 30  2  0
 30 31  1  0
 31 32  1  0
 31 33  2  0
 33 34  1  0
 34 35  2  0
 35 29  1  0
 36 37  1  0
 37 38  2  0
 37 39  1  0
 36 40  1  0
 40 41  1  0
 40 42  1  0
 42 43  2  0
 42 44  1  0
 45 46  1  0
 46 47  1  0
 47 48  1  0
 48 49  1  0
 49 50  2  0
 49 51  1  0
 51 52  1  0
 51 53  1  0
 51 45  1  0
 54 55  2  0
 55 56  1  0
 56 57  1  0
 56 58  2  0
 58 59  1  0
 59 60  2  0
 60 54  1  0
 61 62  2  0
 62 63  1  0
 63 64  1  0
 63 65  2  0
 65 66  1  0
 66 67  2  0
 67 61  1  0
 68 69  1  0
 69 70  1  0
 70 71  1  0
 70 72  1  0
 68 73  1  0
 73 74  1  0
 74 75  1  0
 75 76  2  0
 75 77  1  0
 77 78  1  0
 78 79  1  0
 79 73  1  0
 80 81  1  0
 81 82  2  0
 82 83  1  0
 83 84  2  0
 84 85  1  0
 85 86  2  0
 86 87  1  0
 87 88  1  0
 88 89  1  0
 89 90  2  0
 90 91  1  0
 91 92  2  0
 92 93  1  0
 92 94  1  0
 94 95  2  0
 95 80  1  0
 86 81  1  0
 95 89  1  0
  1 23  1  0
  4 34  1  0
 15 36  1  0
 33 45  1  0
 29 54  1  0
 58 65  1  0
 66 77  1  0
 61 80  1  0
M  RAD  2   5   2  68   2
M  END
$$$$

     RDKit          2D

133148  0  0  0  0  0  0  0  0999 V2000
   -1.8107   -3.8597    0.0000 N   0  0  0  0  0  0  0  0  0  0  0  0
   -0.7500   -4.9204    0.0000 C   0  0  0  0  0  0  0  0  0  0  0  0
    0.7500   -4.9204    0.0000 C   0  0  0  0  0  0  0  0  0  0  0  0
    1.3240   -6.3062    0.0000 C   0  0  0  0  0  0  0  0  0  0  0  0
    1.8107   -3.8597    0.0000 C   0  0  0  0  0  3  0  0  0  0  0  0
    1.8107   -2.3597    0.0000 O   0  0  0  0  0  0  0  0  0  0  0  0
    0.7500   -1.2990    0.0000 C   0  0  0  0  0  0  0  0  0  0  0  0
    1.5000    0.0000    0.0000 N   0  0  0  0  0  0  0  0  0  0  0  0
    0.7500    1.2990    0.0000 C   0  0  0  0  0  0  0  0  0  0  0  0
   -0.7500    1.2990    0.0000 C   0  0  0  0  0  0  0  0  0  0  0  0
   -1.5000    2.5981    0.0000 C   0  0  0  0  0  0  0  0  0  0  0  0
   -2.2500    3.8971    0.0000 C   0  0  0  0  0  0  0  0  0  0  0  0
   -3.0000    5.1962    0.0000 C   0  0  0  0  0  0  0  0  0  0  0  0
   -2.2500    6.4952    0.0000 C   0  0  0  0  0  0  0  0  0  0  0  0
   -3.0000    7.7942    0.0000 C   0  0  0  0  0  0  0  0  0  0  0  0
   -4.5000    7.7942    0.0000 C   0  0  0  0  0  0  0  0  0  0  0  0
   -5.2500    6.4952    0.0000 C   0  0  0  0  0  0  0  0  0  0  0  0
   -4.5000    5.1962    0.0000 C   0  0  0  0  0  0  0  0  0  0  0  0
   -1.5000    0.0000    0.0000 C   0  0  0  0  0  0  0  0  0  0  0  0
   -0.7500   -1.2990    0.0000 C   0  0  0  0  0  0  0  0  0  0  0  0
   -1.8107   -2.3597    0.0000 C   0  0  0  0  0  0  0  0  0  0  0  0
   -3.1965   -1.7857    0.0000 O   0  0  0  0  0  0  0  0  0  0  0  0
   -1.7454   11.4673    0.0000 N   0  0  0  0  0  0  0  0  0  0  0  0
   -0.4463   10.7173    0.0000 C   0  0  0  0  0  0  0  0  0  0  0  0
    0.9240   11.3274    0.0000 O   0  0  0  0  0  0  0  0  0  0  0  0
   -0.7582    9.2501    0.0000 C   0  0  0  0  0  0  0  0  0  0  0  0
   -2.2500    9.0933    0.0000 C   0  0  0  0  0  3  0  0  0  0  0  0
   -2.8601   10.4636    0.0000 C   0  0  0  0  0  0  0  0  0  0  0  0
    0.8369   -8.9344    0.0000 N   0  0  0  0  0  0  0  0  0  0  0  0
   -0.3993   -9.7840    0.0000 C   0  0  0  0  0  0  0  0  0  0  0  0
    0.9576  -10.4460    0.0000 C   0  0  0  0  0  0  0  0  0  0  0  0
    2.0982   -9.4718    0.0000 N   0  0  0  0  0  0  0  0  0  0  0  0
    1.8248   -7.9969    0.0000 C   0  0  0  0  0  0  0  0  0  0  0  0
    2.9655   -7.0227    0.0000 C   0  0  0  0  0  0  0  0  0  0  0  0
    4.3794   -7.5235    0.0000 C   0  0  0  0  0  0  0  0  0  0  0  0
    4.6528   -8.9983    0.0000 C   0  0  0  0  0  0  0  0  0  0  0  0
    6.0667   -9.4990    0.0000 C   0  0  0  0  0  0  0  0  0  0  0  0
    7.3029   -8.6494    0.0000 C   0  0  0  0  0  0  0  0  0  0  0  0
    8.4930   -9.5626    0.0000 C   0  0  0  0  0  0  0  0  0  0  0  0
    7.9922  -10.9765    0.0000 C   0  0  0  0  0  0  0  0  0  0  0  0
    6.4928  -10.9373    0.0000 C   0  0  0  0  0  0  0  0  0  0  0  0
    3.5122   -9.9725    0.0000 C   0  0  0  0  0  0  0  0  0  0  0  0
    4.1343  -11.3374    0.0000 O   0  0  0  0  0  0  0  0  0  0  0  0
    0.4109   -7.4962    0.0000 C   0  0  0  0  0  0  0  0  0  0  0  0
   -1.0886   -7.4569    0.0000 C   0  0  0  0  0  0  0  0  0  0  0  0
   -1.5893   -8.8709    0.0000 C   0  0  0  0  0  3  0  0  0  0  0  0
    0.9543  -13.1942    0.0000 N   0  0  0  0  0  0  0  0  0  0  0  0
    1.2662  -11.7270    0.0000 C   0  0  0  0  0  0  0  0  0  0  0  0
    2.5242  -10.9100    0.0000 C   0  0  0  0  0  0  0  0  0  0  0  0
    2.2509   -9.4351    0.0000 C   0  0  0  0  0  0  0  0  0  0  0  0
    3.9914  -11.2219    0.0000 C   0  0  0  0  0  3  0  0  0  0  0  0
    4.8084  -12.4799    0.0000 O   0  0  0  0  0  0  0  0  0  0  0  0
    4.4965  -13.9471    0.0000 C   0  0  0  0  0  0  0  0  0  0  0  0
    5.8330  -14.6281    0.0000 C   0  0  0  0  0  0  0  0  0  0  0  0
    5.9115  -16.1261    0.0000 C   0  0  0  0  0  0  0  0  0  0  0  0
    7.2481  -16.8070    0.0000 C   0  0  0  0  0  0  0  0  0  0  0  0
    8.5846  -17.4880    0.0000 C   0  0  0  0  0  0  0  0  0  0  0  0
    9.9211  -18.1690    0.0000 C   0  0  0  0  0  0  0  0  0  0  0  0
   11.1791  -17.3521    0.0000 C   0  0  0  0  0  0  0  0  0  0  0  0
    9.9996  -19.6670    0.0000 C   0  0  0  0  0  0  0  0  0  0  0  0
    4.6535  -16.9430    0.0000 C   0  0  0  0  0  0  0  0  0  0  0  0
    3.3170  -16.2620    0.0000 C   0  0  0  0  0  0  0  0  0  0  0  0
    3.2385  -14.7641    0.0000 C   0  0  0  0  0  0  0  0  0  0  0  0
    1.7713  -14.4522    0.0000 S   0  0  0  0  0  0  0  0  0  0  0  0
    0.3447  -14.9157    0.0000 O   0  0  0  0  0  0  0  0  0  0  0  0
    1.8498  -15.9502    0.0000 O   0  0  0  0  0  0  0  0  0  0  0  0
   -1.9022   12.9591    0.0000 C   0  0  0  0  0  3  0  0  0  0  0  0
   -3.2012   13.7091    0.0000 C   0  0  0  0  0  0  0  0  0  0  0  0
   -2.8894   15.1763    0.0000 C   0  0  0  0  0  0  0  0  0  0  0  0
   -1.3976   15.3331    0.0000 C   0  0  0  0  0  0  0  0  0  0  0  0
   -0.7875   13.9628    0.0000 N   0  0  0  0  0  0  0  0  0  0  0  0
    1.3602    9.1390    0.0000 C   0  0  0  0  0  0  0  0  0  0  0  0
    0.2455    8.1353    0.0000 C   0  0  0  0  0  0  0  0  0  0  0  0
   -0.8692    7.1316    0.0000 C   0  0  0  0  0  0  0  0  0  0  0  0
    1.2492    7.0206    0.0000 N   0  0  0  0  0  0  0  0  0  0  0  0
    0.7856    5.5940    0.0000 C   0  0  0  0  0  0  0  0  0  0  0  0
    1.7893    4.4793    0.0000 C   0  0  0  0  0  0  0  0  0  0  0  0
   -0.6816    5.2822    0.0000 C   0  0  0  0  0  0  0  0  0  0  0  0
   -1.1451    3.8556    0.0000 C   0  0  0  0  0  0  0  0  0  0  0  0
   -2.4933    3.1980    0.0000 O   0  0  0  0  0  0  0  0  0  0  0  0
   -4.3865   -3.5206    0.0000 C   0  0  0  0  0  3  0  0  0  0  0  0
   -5.7723   -4.0946    0.0000 C   0  0  0  0  0  0  0  0  0  0  0  0
   -6.9624   -3.1815    0.0000 C   0  0  0  0  0  0  0  0  0  0  0  0
   -6.7666   -1.6943    0.0000 O   0  0  0  0  0  0  0  0  0  0  0  0
   -8.3482   -3.7555    0.0000 O   0  0  0  0  0  0  0  0  0  0  0  0
   -3.1965   -4.4337    0.0000 C   0  0  0  0  0  0  0  0  0  0  0  0
   -3.3923   -5.9209    0.0000 C   0  0  0  0  0  3  0  0  0  0  0  0
   -4.7781   -6.4949    0.0000 C   0  0  0  0  0  0  0  0  0  0  0  0
   -4.9739   -7.9821    0.0000 C   0  0  0  0  0  0  0  0  0  0  0  0
   -6.3597   -8.5561    0.0000 C   0  0  0  0  0  0  0  0  0  0  0  0
   -6.5555  -10.0433    0.0000 C   0  0  0  0  0  0  0  0  0  0  0  0
   -7.9413  -10.6173    0.0000 C   0  0  0  0  0  0  0  0  0  0  0  0
    3.0986    7.2083    0.0000 C   0  0  0  0  0  0  0  0  0  0  0  0
    2.7868    8.6755    0.0000 C   0  0  0  0  0  0  0  0  0  0  0  0
    3.9015    9.6792    0.0000 C   0  0  0  0  0  0  0  0  0  0  0  0
    5.3281    9.2157    0.0000 N   0  0  0  0  0  0  0  0  0  0  0  0
    6.6271    9.9657    0.0000 N   0  0  0  0  0  0  0  0  0  0  0  0
    7.7418    8.9620    0.0000 C   0  0  0  0  0  0  0  0  0  0  0  0
    7.1317    7.5917    0.0000 C   0  0  0  0  0  0  0  0  0  0  0  0
    5.6400    7.7485    0.0000 C   0  0  0  0  0  0  0  0  0  0  0  0
    4.5252    6.7448    0.0000 N   0  0  0  0  0  0  0  0  0  0  0  0
   -0.5205  -13.4676    0.0000 C   0  0  0  0  0  0  0  0  0  0  0  0
   -1.4947  -12.3270    0.0000 O   0  0  0  0  0  0  0  0  0  0  0  0
   -1.0212  -14.8815    0.0000 C   0  0  0  0  0  0  0  0  0  0  0  0
   -2.4961  -15.1549    0.0000 C   0  0  0  0  0  0  0  0  0  0  0  0
   -2.9968  -16.5688    0.0000 C   0  0  0  0  0  0  0  0  0  0  0  0
   -4.4717  -16.8422    0.0000 C   0  0  0  0  0  0  0  0  0  0  0  0
   -4.9724  -18.2562    0.0000 C   0  0  0  0  0  0  0  0  0  0  0  0
   -6.4473  -18.5295    0.0000 C   0  0  0  0  0  0  0  0  0  0  0  0
   -7.4215  -17.3889    0.0000 O   0  0  0  0  0  0  0  0  0  0  0  0
   -6.9480  -19.9435    0.0000 N   0  0  0  0  0  0  0  0  0  0  0  0
   -8.4229  -20.2168    0.0000 N   0  0  0  0  0  0  0  0  0  0  0  0
   -8.9236  -21.6308    0.0000 C   0  0  0  0  0  0  0  0  0  0  0  0
  -10.3985  -21.9041    0.0000 C   0  0  0  0  0  0  0  0  0  0  0  0
  -10.8992  -23.3181    0.0000 P   0  0  0  0  0  4  0  0  0  0  0  0
  -11.3999  -24.7321    0.0000 C   0  0  0  0  0  0  0  0  0  0  0  0
  -10.4257  -25.8727    0.0000 C   0  0  0  0  0  0  0  0  0  0  0  0
  -10.9265  -27.2866    0.0000 C   0  0  0  0  0  0  0  0  0  0  0  0
  -12.4013  -27.5600    0.0000 C   0  0  0  0  0  0  0  0  0  0  0  0
  -13.3755  -26.4194    0.0000 C   0  0  0  0  0  0  0  0  0  0  0  0
  -12.8748  -25.0054    0.0000 C   0  0  0  0  0  0  0  0  0  0  0  0
  -12.3132  -22.8174    0.0000 C   0  0  0  0  0  0  0  0  0  0  0  0
  -13.4538  -23.7916    0.0000 C   0  0  0  0  0  0  0  0  0  0  0  0
  -14.8677  -23.2909    0.0000 C   0  0  0  0  0  0  0  0  0  0  0  0
  -15.1411  -21.8160    0.0000 C   0  0  0  0  0  0  0  0  0  0  0  0
  -14.0005  -20.8418    0.0000 C   0  0  0  0  0  0  0  0  0  0  0  0
  -12.5865  -21.3425    0.0000 C   0  0  0  0  0  0  0  0  0  0  0  0
   -9.4852  -23.8188    0.0000 C   0  0  0  0  0  0  0  0  0  0  0  0
   -8.3446  -22.8446    0.0000 C   0  0  0  0  0  0  0  0  0  0  0  0
   -6.9307  -23.3454    0.0000 C   0  0  0  0  0  0  0  0  0  0  0  0
   -6.6573  -24.8202    0.0000 C   0  0  0  0  0  0  0  0  0  0  0  0
   -7.7979  -25.7944    0.0000 C   0  0  0  0  0  0  0  0  0  0  0  0
   -9.2119  -25.2937    0.0000 C   0  0  0  0  0  0  0  0  0  0  0  0
  1  2  1  0
  2  3  1  0
  3  4  1  1
  3  5  1  0
  5  6  1  0
  6  7  1  0
  7  8  2  0
  8  9  1  0
  9 10  2  0
 10 11  1  0
 11 12  3  0
 12 13  1  0
 13 14  2  0
 14 15  1  0
 15 16  2  0
 16 17  1  0
 17 18  2  0
 10 19  1  0
 19 20  2  0
 20 21  1  0
 21 22  2  0
 21  1  1  0
 20  7  1  0
 18 13  1  0
 23 24  1  0
 24 25  2  0
 24 26  1  0
 26 27  1  0
 27 28  1  0
 28 23  1  0
 29 30  1  0
 30 31  1  6
 31 32  1  0
 32 33  1  0
 33 34  2  0
 34 35  1  0
 35 36  2  0
 36 37  1  0
 37 38  2  0
 38 39  1  0
 39 40  1  0
 40 41  1  0
 36 42  1  0
 42 43  2  0
 33 44  1  0
 44 45  1  0
 45 46  1  0
 44 29  1  0
 46 30  1  0
 42 32  1  0
 41 37  1  0
 47 48  1  0
 48 49  1  0
 49 50  1  1
 49 51  1  0
 51 52  1  0
 52 53  1  0
 53 54  2  0
 54 55  1  0
 55 56  1  0
 56 57  3  0
 57 58  1  0
 58 59  1  0
 58 60  1  0
 55 61  2  0
 61 62  1  0
 62 63  2  0
 63 64  1  0
 64 65  2  0
 64 66  2  0
 64 47  1  0
 63 53  1  0
 67 68  1  0
 68 69  1  0
 69 70  1  0
 70 71  1  0
 71 67  1  0
 72 73  1  0
 73 74  1  0
 73 75  1  0
 75 76  2  3
 76 77  1  0
 76 78  1  0
 78 79  1  0
 79 80  2  0
 81 82  1  0
 82 83  1  0
 83 84  2  0
 83 85  1  0
 81 86  1  0
 86 87  1  0
 87 88  1  0
 88 89  1  0
 89 90  1  0
 90 91  1  0
 91 92  1  0
 93 94  1  0
 94 95  2  0
 95 96  1  0
 96 97  1  0
 97 98  2  0
 98 99  1  0
 99100  2  0
100101  1  0
101 93  2  0
100 96  1  0
102103  2  0
102104  1  0
104105  1  0
105106  1  0
106107  1  0
107108  1  0
108109  1  0
109110  2  0
109111  1  0
111112  1  0
112113  2  0
113114  1  0
114115  1  0
115116  1  0
116117  2  0
117118  1  0
118119  2  0
119120  1  0
120121  2  0
115122  1  0
122123  2  0
123124  1  0
124125  2  0
125126  1  0
126127  2  0
115128  1  0
128129  2  0
129130  1  0
130131  2  0
131132  1  0
132133  2  0
121116  1  0
127122  1  0
133128  1  0
 15 27  1  0
 44  4  1  1
  1 86  1  0
 23 67  1  0
 26 73  1  0
 29 50  1  0
 47102  1  0
 72 94  1  0
M  CHG  1 115   1
M  RAD  7   5   2  27   2  46   2  51   2  67   2  81   2  87   2
M  END
$$$$

     RDKit          2D

124142  0  0  0  0  0  0  0  0999 V2000
  -18.6113    1.7942    0.0000 C   0  0  0  0  0  0  0  0  0  0  0  0
  -19.1188    0.3826    0.0000 C   0  0  0  0  0  0  0  0  0  0  0  0
  -20.5949    0.1163    0.0000 C   0  0  0  0  0  0  0  0  0  0  0  0
  -18.1501   -0.7626    0.0000 N   0  0  0  0  0  0  0  0  0  0  0  0
  -18.6575   -2.1742    0.0000 C   0  0  0  0  0  0  0  0  0  0  0  0
  -17.6889   -3.3195    0.0000 C   0  0  0  0  0  0  0  0  0  0  0  0
  -20.1337   -2.4405    0.0000 C   0  0  0  0  0  0  0  0  0  0  0  0
  -20.6412   -3.8520    0.0000 C   0  0  0  0  0  0  0  0  0  0  0  0
  -22.1174   -4.1183    0.0000 O   0  0  0  0  0  0  0  0  0  0  0  0
  -14.6902    1.1815    0.0000 C   0  0  0  0  0  0  0  0  0  0  0  0
  -14.1827    2.5930    0.0000 C   0  0  0  0  0  0  0  0  0  0  0  0
  -15.1514    3.7383    0.0000 C   0  0  0  0  0  0  0  0  0  0  0  0
  -14.6440    5.1498    0.0000 C   0  0  0  0  0  0  0  0  0  0  0  0
  -16.6276    3.4720    0.0000 C   0  0  0  0  0  0  0  0  0  0  0  0
  -17.1351    2.0604    0.0000 C   0  0  0  0  0  0  0  0  0  0  0  0
  -16.1664    0.9152    0.0000 C   0  0  0  0  0  0  0  0  0  0  0  0
  -21.3491    5.9318    0.0000 N   0  0  0  0  0  0  0  0  0  0  0  0
  -19.8834    5.6129    0.0000 C   0  0  0  0  0  0  0  0  0  0  0  0
  -19.0725    4.3510    0.0000 C   0  0  0  0  0  0  0  0  0  0  0  0
  -17.5963    4.6173    0.0000 C   0  0  0  0  0  0  0  0  0  0  0  0
  -19.3914    2.8853    0.0000 C   0  0  0  0  0  3  0  0  0  0  0  0
  -20.6533    2.0743    0.0000 O   0  0  0  0  0  0  0  0  0  0  0  0
  -22.1190    2.3932    0.0000 C   0  0  0  0  0  0  0  0  0  0  0  0
  -22.8064    1.0600    0.0000 N   0  0  0  0  0  0  0  0  0  0  0  0
  -24.3047    0.9887    0.0000 C   0  0  0  0  0  0  0  0  0  0  0  0
  -25.1156    2.2506    0.0000 C   0  0  0  0  0  0  0  0  0  0  0  0
  -26.6139    2.1793    0.0000 C   0  0  0  0  0  0  0  0  0  0  0  0
  -28.1122    2.1080    0.0000 C   0  0  0  0  0  0  0  0  0  0  0  0
  -29.6105    2.0366    0.0000 C   0  0  0  0  0  0  0  0  0  0  0  0
  -30.2979    0.7034    0.0000 C   0  0  0  0  0  0  0  0  0  0  0  0
  -31.7962    0.6321    0.0000 C   0  0  0  0  0  0  0  0  0  0  0  0
  -32.6071    1.8940    0.0000 C   0  0  0  0  0  0  0  0  0  0  0  0
  -31.9197    3.2272    0.0000 C   0  0  0  0  0  0  0  0  0  0  0  0
  -30.4214    3.2985    0.0000 C   0  0  0  0  0  0  0  0  0  0  0  0
  -24.4282    3.5838    0.0000 C   0  0  0  0  0  0  0  0  0  0  0  0
  -22.9299    3.6552    0.0000 C   0  0  0  0  0  0  0  0  0  0  0  0
  -22.6110    5.1209    0.0000 C   0  0  0  0  0  0  0  0  0  0  0  0
  -23.8431    5.9764    0.0000 O   0  0  0  0  0  0  0  0  0  0  0  0
  -32.4836   -0.7011    0.0000 C   0  0  0  0  0  0  0  0  0  0  0  0
  -31.6727   -1.9631    0.0000 N   0  0  0  0  0  0  0  0  0  0  0  0
  -32.3601   -3.2963    0.0000 C   0  0  0  0  0  0  0  0  0  0  0  0
  -33.8584   -3.3676    0.0000 C   0  0  0  0  0  0  0  0  0  0  0  0
  -34.6693   -2.1057    0.0000 C   0  0  0  0  0  0  0  0  0  0  0  0
  -33.9819   -0.7725    0.0000 C   0  0  0  0  0  0  0  0  0  0  0  0
  -34.7928    0.4894    0.0000 C   0  0  0  0  0  0  0  0  0  0  0  0
  -34.5457   -4.7008    0.0000 C   0  0  0  0  0  0  0  0  0  0  0  0
  -33.8712   -6.0406    0.0000 N   0  0  0  0  0  0  0  0  0  0  0  0
  -34.9369   -7.0962    0.0000 C   0  0  0  0  0  0  0  0  0  0  0  0
  -34.8656   -8.5945    0.0000 C   0  0  0  0  0  0  0  0  0  0  0  0
  -36.1275   -9.4054    0.0000 C   0  0  0  0  0  0  0  0  0  0  0  0
  -36.0562  -10.9037    0.0000 Br  0  0  0  0  0  0  0  0  0  0  0  0
  -37.4607   -8.7180    0.0000 C   0  0  0  0  0  0  0  0  0  0  0  0
  -37.5320   -7.2197    0.0000 C   0  0  0  0  0  0  0  0  0  0  0  0
  -36.2701   -6.4088    0.0000 C   0  0  0  0  0  0  0  0  0  0  0  0
  -36.0284   -4.9284    0.0000 O   0  0  0  0  0  0  0  0  0  0  0  0
  -23.2932    9.3916    0.0000 C   0  0  0  0  0  0  0  0  0  0  0  0
  -23.0269    7.9154    0.0000 C   0  0  0  0  0  0  0  0  0  0  0  0
  -21.6154    7.4080    0.0000 O   0  0  0  0  0  0  0  0  0  0  0  0
  -22.1480   10.3603    0.0000 C   0  0  0  0  0  0  0  0  0  0  0  0
  -22.4142   11.8365    0.0000 O   0  0  0  0  0  0  0  0  0  0  0  0
  -13.7215    0.0362    0.0000 N   0  0  0  0  0  0  0  0  0  0  0  0
  -14.3331   -1.3335    0.0000 C   0  0  0  0  0  0  0  0  0  0  0  0
  -15.8315   -1.2646    0.0000 C   0  0  0  0  0  0  0  0  0  0  0  0
  -16.6404   -2.5278    0.0000 C   0  0  0  0  0  0  0  0  0  0  0  0
  -15.9508   -3.8599    0.0000 C   0  0  0  0  0  0  0  0  0  0  0  0
  -14.4524   -3.9288    0.0000 C   0  0  0  0  0  0  0  0  0  0  0  0
  -13.6435   -2.6656    0.0000 C   0  0  0  0  0  0  0  0  0  0  0  0
  -12.1721   -2.9570    0.0000 C   0  0  0  0  0  0  0  0  0  0  0  0
  -11.0268   -1.9883    0.0000 C   0  0  0  0  0  0  0  0  0  0  0  0
  -11.0701   -0.4890    0.0000 C   0  0  0  0  0  0  0  0  0  0  0  0
   -9.6902    0.0991    0.0000 C   0  0  0  0  0  0  0  0  0  0  0  0
   -9.5096    1.5882    0.0000 C   0  0  0  0  0  0  0  0  0  0  0  0
  -10.7088    2.4892    0.0000 C   0  0  0  0  0  0  0  0  0  0  0  0
  -12.0887    1.9011    0.0000 C   0  0  0  0  0  0  0  0  0  0  0  0
  -12.2694    0.4120    0.0000 C   0  0  0  0  0  0  0  0  0  0  0  0
  -24.7048    9.8991    0.0000 C   0  0  0  0  0  0  0  0  0  0  0  0
  -25.8500    8.9304    0.0000 C   0  0  0  0  0  0  0  0  0  0  0  0
  -27.2616    9.4379    0.0000 C   0  0  0  0  0  0  0  0  0  0  0  0
  -27.5279   10.9141    0.0000 C   0  0  0  0  0  0  0  0  0  0  0  0
  -28.9394   11.4215    0.0000 C   0  0  0  0  0  0  0  0  0  0  0  0
  -26.3826   11.8828    0.0000 C   0  0  0  0  0  0  0  0  0  0  0  0
  -26.6489   13.3589    0.0000 N   0  0  0  0  0  0  0  0  0  0  0  0
  -24.9710   11.3753    0.0000 C   0  0  0  0  0  0  0  0  0  0  0  0
    1.5000    0.0000    0.0000 C   0  0  0  0  0  0  0  0  0  0  0  0
    0.7500   -1.2990    0.0000 C   0  0  0  0  0  0  0  0  0  0  0  0
   -0.7500   -1.2990    0.0000 C   0  0  0  0  0  0  0  0  0  0  0  0
   -1.5000    0.0000    0.0000 C   0  0  0  0  0  0  0  0  0  0  0  0
   -0.7500    1.2990    0.0000 C   0  0  0  0  0  0  0  0  0  0  0  0
    0.7500    1.2990    0.0000 C   0  0  0  0  0  0  0  0  0  0  0  0
    1.8086    2.7762    0.0000 O   0  0  0  0  0  0  0  0  0  0  0  0
    2.0691    4.2535    0.0000 C   0  0  0  0  0  0  0  0  0  0  0  0
    1.8086    5.7307    0.0000 C   0  0  0  0  0  0  0  0  0  0  0  0
    1.0586    7.0297    0.0000 C   0  0  0  0  0  0  0  0  0  0  0  0
   -0.0905    7.9939    0.0000 C   0  0  0  0  0  0  0  0  0  0  0  0
    0.1700    6.5167    0.0000 C   0  0  0  0  0  0  0  0  0  0  0  0
    0.9200    5.2176    0.0000 C   0  0  0  0  0  0  0  0  0  0  0  0
   -1.5000    8.5069    0.0000 C   0  0  0  0  0  0  0  0  0  0  0  0
   -3.0000    8.5069    0.0000 C   0  0  0  0  0  0  0  0  0  0  0  0
   -4.4095    7.9939    0.0000 C   0  0  0  0  0  0  0  0  0  0  0  0
   -4.6700    9.4711    0.0000 C   0  0  0  0  0  0  0  0  0  0  0  0
   -6.0796    9.9841    0.0000 C   0  0  0  0  0  0  0  0  0  0  0  0
   -7.2286    9.0200    0.0000 C   0  0  0  0  0  0  0  0  0  0  0  0
   -6.9681    7.5427    0.0000 C   0  0  0  0  0  0  0  0  0  0  0  0
   -5.5586    7.0297    0.0000 C   0  0  0  0  0  0  0  0  0  0  0  0
   -6.3086    5.7307    0.0000 O   0  0  0  0  0  0  0  0  0  0  0  0
   -6.5691    4.2535    0.0000 C   0  0  0  0  0  0  0  0  0  0  0  0
   -6.3086    2.7762    0.0000 C   0  0  0  0  0  0  0  0  0  0  0  0
   -5.5586    1.4772    0.0000 C   0  0  0  0  0  0  0  0  0  0  0  0
   -6.9681    0.9642    0.0000 C   0  0  0  0  0  0  0  0  0  0  0  0
   -8.1297    2.1763    0.0000 C   0  0  0  0  0  0  0  0  0  0  0  0
   -7.9490    3.6654    0.0000 C   0  0  0  0  0  0  0  0  0  0  0  0
   -7.2286   -0.5130    0.0000 C   0  0  0  0  0  0  0  0  0  0  0  0
   -6.0796   -1.4772    0.0000 C   0  0  0  0  0  0  0  0  0  0  0  0
   -4.6700   -0.9642    0.0000 N   0  0  0  0  0  0  0  0  0  0  0  0
   -3.5209   -1.9284    0.0000 C   0  0  0  0  0  0  0  0  0  0  0  0
   -4.4095    0.5130    0.0000 C   0  0  0  0  0  0  0  0  0  0  0  0
   -3.0000    0.0000    0.0000 C   0  0  0  0  0  0  0  0  0  0  0  0
   -8.2926    6.8385    0.0000 O   0  0  0  0  0  0  0  0  0  0  0  0
   -9.3716    7.8805    0.0000 C   0  0  0  0  0  0  0  0  0  0  0  0
   -8.7140    9.2287    0.0000 O   0  0  0  0  0  0  0  0  0  0  0  0
   -4.5000   11.1050    0.0000 C   0  0  0  0  0  0  0  0  0  0  0  0
   -3.0000   11.1050    0.0000 C   0  0  0  0  0  0  0  0  0  0  0  0
   -2.2500    9.8060    0.0000 N   0  0  0  0  0  0  0  0  0  0  0  0
   -0.7500    9.8060    0.0000 C   0  0  0  0  0  0  0  0  0  0  0  0
  1  2  1  0
  2  3  1  0
  2  4  1  0
  4  5  2  3
  5  6  1  0
  5  7  1  0
  7  8  1  0
  8  9  2  0
 10 11  2  0
 11 12  1  0
 12 13  1  0
 12 14  2  0
 14 15  1  0
 15 16  2  0
 16 10  1  0
 17 18  1  0
 18 19  1  0
 19 20  1  6
 19 21  1  0
 21 22  1  0
 22 23  1  0
 23 24  2  0
 24 25  1  0
 25 26  2  0
 26 27  1  0
 27 28  3  0
 28 29  1  0
 29 30  2  0
 30 31  1  0
 31 32  2  0
 32 33  1  0
 33 34  2  0
 26 35  1  0
 35 36  2  0
 36 37  1  0
 37 38  2  0
 37 17  1  0
 36 23  1  0
 34 29  1  0
 39 40  2  0
 40 41  1  0
 41 42  2  0
 42 43  1  0
 43 44  2  0
 44 45  1  0
 44 39  1  0
 46 47  2  0
 47 48  1  0
 48 49  2  0
 49 50  1  0
 50 51  1  0
 50 52  2  0
 52 53  1  0
 53 54  2  0
 54 55  1  0
 55 46  1  0
 54 48  1  0
 56 57  1  0
 57 58  1  0
 56 59  1  0
 59 60  1  0
 61 62  1  0
 62 63  2  0
 63 64  1  0
 64 65  2  0
 65 66  1  0
 66 67  2  0
 67 68  1  0
 68 69  1  0
 69 70  1  0
 70 71  2  0
 71 72  1  0
 72 73  2  0
 73 74  1  0
 74 75  2  0
 75 61  1  0
 67 62  1  0
 75 70  1  0
 76 77  2  0
 77 78  1  0
 78 79  2  0
 79 80  1  0
 79 81  1  0
 81 82  1  0
 81 83  2  0
 83 76  1  0
 84 85  2  0
 85 86  1  0
 86 87  2  0
 87 88  1  0
 88 89  2  0
 89 90  1  0
 90 91  1  0
 91 92  2  0
 92 93  1  0
 93 94  2  0
 94 95  1  0
 95 96  2  0
 94 97  1  0
 97 98  1  0
 98 99  1  0
 99100  1  0
100101  2  0
101102  1  0
102103  2  0
103104  1  0
104105  1  0
105106  1  0
106107  2  0
107108  1  0
108109  2  0
109110  1  0
110111  2  0
109112  1  0
112113  1  0
113114  1  0
114115  1  0
114116  1  0
116117  1  0
103118  1  0
118119  1  0
119120  1  0
100121  1  0
121122  1  0
122123  1  0
123124  1  0
 89 84  1  0
 96 91  1  0
123 98  1  0
117 87  1  0
104 99  2  0
111106  1  0
120102  1  0
116108  1  0
  1 15  1  0
 14 20  1  0
 10 61  1  0
 31 39  1  0
 17 58  1  0
 42 46  1  0
 56 76  1  0
 72110  1  0
M  RAD  1  21   2
M  END
$$$$

     RDKit          2D

122137  0  0  0  0  0  0  0  0999 V2000
   -8.9002   17.7416    0.0000 C   0  0  0  0  0  0  0  0  0  0  0  0
   -8.3262   19.1274    0.0000 C   0  0  0  0  0  0  0  0  0  0  0  0
   -6.8390   19.3232    0.0000 C   0  0  0  0  0  0  0  0  0  0  0  0
   -6.2650   20.7090    0.0000 C   0  0  0  0  0  0  0  0  0  0  0  0
   -5.9259   18.1332    0.0000 C   0  0  0  0  0  0  0  0  0  0  0  0
   -6.4999   16.7474    0.0000 C   0  0  0  0  0  0  0  0  0  0  0  0
   -7.9871   16.5516    0.0000 C   0  0  0  0  0  0  0  0  0  0  0  0
    0.3228    8.5116    0.0000 N   0  0  0  0  0  0  0  0  0  0  0  0
    1.5128    7.5984    0.0000 C   0  0  0  0  0  0  0  0  0  0  0  0
    3.0000    7.7942    0.0000 C   0  0  0  0  0  0  0  0  0  0  0  0
    3.7500    6.4952    0.0000 C   0  0  0  0  0  0  0  0  0  0  0  0
    3.9131    8.9843    0.0000 C   0  0  0  0  0  3  0  0  0  0  0  0
    3.7174   10.4714    0.0000 O   0  0  0  0  0  0  0  0  0  0  0  0
    2.5273   11.3846    0.0000 C   0  0  0  0  0  0  0  0  0  0  0  0
    3.1013   12.7704    0.0000 N   0  0  0  0  0  0  0  0  0  0  0  0
    2.1882   13.9604    0.0000 C   0  0  0  0  0  0  0  0  0  0  0  0
    0.7010   13.7646    0.0000 C   0  0  0  0  0  0  0  0  0  0  0  0
   -0.2121   14.9547    0.0000 C   0  0  0  0  0  0  0  0  0  0  0  0
   -1.1252   16.1447    0.0000 C   0  0  0  0  0  0  0  0  0  0  0  0
   -2.0384   17.3347    0.0000 C   0  0  0  0  0  0  0  0  0  0  0  0
   -3.5256   17.1389    0.0000 C   0  0  0  0  0  0  0  0  0  0  0  0
   -4.4387   18.3290    0.0000 C   0  0  0  0  0  0  0  0  0  0  0  0
   -3.8647   19.7148    0.0000 C   0  0  0  0  0  0  0  0  0  0  0  0
   -2.3775   19.9106    0.0000 C   0  0  0  0  0  0  0  0  0  0  0  0
   -1.4644   18.7205    0.0000 C   0  0  0  0  0  0  0  0  0  0  0  0
    0.1270   12.3788    0.0000 C   0  0  0  0  0  0  0  0  0  0  0  0
    1.0402   11.1888    0.0000 C   0  0  0  0  0  0  0  0  0  0  0  0
    0.1270    9.9987    0.0000 C   0  0  0  0  0  0  0  0  0  0  0  0
   -1.3219   10.3870    0.0000 O   0  0  0  0  0  0  0  0  0  0  0  0
    1.5000    2.5981    0.0000 C   0  0  0  0  0  0  0  0  0  0  0  0
    3.0000    2.5981    0.0000 C   0  0  0  0  0  0  0  0  0  0  0  0
    3.7500    3.8971    0.0000 C   0  0  0  0  0  0  0  0  0  0  0  0
    3.0000    5.1962    0.0000 C   0  0  0  0  0  0  0  0  0  0  0  0
    1.5000    5.1962    0.0000 C   0  0  0  0  0  0  0  0  0  0  0  0
    0.7500    3.8971    0.0000 C   0  0  0  0  0  0  0  0  0  0  0  0
    8.6772    5.9135    0.0000 N   0  0  0  0  0  0  0  0  0  0  0  0
    7.4872    5.0004    0.0000 C   0  0  0  0  0  0  0  0  0  0  0  0
    6.0000    5.1962    0.0000 C   0  0  0  0  0  0  0  0  0  0  0  0
    5.2500    3.8971    0.0000 C   0  0  0  0  0  0  0  0  0  0  0  0
    5.0869    6.3862    0.0000 C   0  0  0  0  0  3  0  0  0  0  0  0
    5.2826    7.8733    0.0000 O   0  0  0  0  0  0  0  0  0  0  0  0
    6.4727    8.7865    0.0000 C   0  0  0  0  0  0  0  0  0  0  0  0
    5.8987   10.1723    0.0000 N   0  0  0  0  0  0  0  0  0  0  0  0
    6.8118   11.3623    0.0000 C   0  0  0  0  0  0  0  0  0  0  0  0
    8.2990   11.1666    0.0000 C   0  0  0  0  0  0  0  0  0  0  0  0
    9.2121   12.3566    0.0000 C   0  0  0  0  0  0  0  0  0  0  0  0
   10.1252   13.5466    0.0000 C   0  0  0  0  0  0  0  0  0  0  0  0
   11.0384   14.7366    0.0000 C   0  0  0  0  0  0  0  0  0  0  0  0
   12.5256   14.5409    0.0000 C   0  0  0  0  0  0  0  0  0  0  0  0
   13.4387   15.7309    0.0000 C   0  0  0  0  0  0  0  0  0  0  0  0
   12.8647   17.1167    0.0000 C   0  0  0  0  0  0  0  0  0  0  0  0
   11.3775   17.3125    0.0000 C   0  0  0  0  0  0  0  0  0  0  0  0
   10.4644   16.1225    0.0000 C   0  0  0  0  0  0  0  0  0  0  0  0
    8.8730    9.7807    0.0000 C   0  0  0  0  0  0  0  0  0  0  0  0
    7.9598    8.5907    0.0000 C   0  0  0  0  0  0  0  0  0  0  0  0
    8.8730    7.4007    0.0000 C   0  0  0  0  0  0  0  0  0  0  0  0
   10.3219    7.7889    0.0000 O   0  0  0  0  0  0  0  0  0  0  0  0
   -0.9762    7.7616    0.0000 C   0  0  0  0  0  0  0  0  0  0  0  0
   -0.9762    6.2616    0.0000 C   0  0  0  0  0  0  0  0  0  0  0  0
   -2.2753    5.5116    0.0000 C   0  0  0  0  0  0  0  0  0  0  0  0
   -3.5743    6.2616    0.0000 N   0  0  0  0  0  0  0  0  0  0  0  0
   -3.5743    7.7616    0.0000 C   0  0  0  0  0  0  0  0  0  0  0  0
   -4.8733    8.5116    0.0000 O   0  0  0  0  0  0  0  0  0  0  0  0
   -2.2753    8.5116    0.0000 N   0  0  0  0  0  0  0  0  0  0  0  0
  -10.3874   17.5458    0.0000 N   0  0  0  0  0  0  0  0  0  0  0  0
  -10.7756   16.0969    0.0000 C   0  0  0  0  0  0  0  0  0  0  0  0
  -12.0746   15.3469    0.0000 C   0  0  0  0  0  0  0  0  0  0  0  0
  -13.5235   15.7351    0.0000 C   0  0  0  0  0  0  0  0  0  0  0  0
  -14.2735   17.0342    0.0000 C   0  0  0  0  0  0  0  0  0  0  0  0
  -13.8853   18.4831    0.0000 C   0  0  0  0  0  0  0  0  0  0  0  0
  -12.5863   19.2331    0.0000 C   0  0  0  0  0  0  0  0  0  0  0  0
  -11.1374   18.8448    0.0000 C   0  0  0  0  0  0  0  0  0  0  0  0
   -2.0490   -6.1471    0.0000 N   0  0  0  0  0  0  0  0  0  0  0  0
   -0.7500   -6.8971    0.0000 C   0  0  0  0  0  0  0  0  0  0  0  0
    0.7500   -6.8971    0.0000 C   0  0  0  0  0  0  0  0  0  0  0  0
    1.1382   -8.3460    0.0000 C   0  0  0  0  0  0  0  0  0  0  0  0
    2.0490   -6.1471    0.0000 C   0  0  0  0  0  3  0  0  0  0  0  0
    2.7990   -4.8481    0.0000 C   0  0  0  0  0  0  0  0  0  0  0  0
    2.7990   -3.3481    0.0000 N   0  0  0  0  0  0  0  0  0  0  0  0
    4.2479   -2.9598    0.0000 C   0  0  0  0  0  0  0  0  0  0  0  0
    2.0490   -2.0490    0.0000 C   0  0  0  0  0  0  0  0  0  0  0  0
    3.1097   -0.9884    0.0000 O   0  0  0  0  0  0  0  0  0  0  0  0
    0.7500   -1.2990    0.0000 C   0  0  0  0  0  0  0  0  0  0  0  0
    1.5000    0.0000    0.0000 C   0  0  0  0  0  0  0  0  0  0  0  0
    0.7500    1.2990    0.0000 C   0  0  0  0  0  0  0  0  0  0  0  0
   -0.7500    1.2990    0.0000 C   0  0  0  0  0  0  0  0  0  0  0  0
   -1.5000    0.0000    0.0000 C   0  0  0  0  0  0  0  0  0  0  0  0
   -0.7500   -1.2990    0.0000 C   0  0  0  0  0  0  0  0  0  0  0  0
   -2.0490   -2.0490    0.0000 O   0  0  0  0  0  0  0  0  0  0  0  0
   -2.7990   -3.3481    0.0000 C   0  0  0  0  0  0  0  0  0  0  0  0
   -2.7990   -4.8481    0.0000 C   0  0  0  0  0  0  0  0  0  0  0  0
   -4.2479   -5.2363    0.0000 C   0  0  0  0  0  0  0  0  0  0  0  0
   -5.2310   -9.3291    0.0000 C   0  0  0  0  0  0  0  0  0  0  0  0
   -5.6192   -7.8802    0.0000 C   0  0  0  0  0  0  0  0  0  0  0  0
   -4.5586   -6.8195    0.0000 C   0  0  0  0  0  0  0  0  0  0  0  0
   -4.9468   -5.3707    0.0000 C   0  0  0  0  0  0  0  0  0  0  0  0
   -3.1097   -7.2078    0.0000 C   0  0  0  0  0  0  0  0  0  0  0  0
   -2.7215   -8.6567    0.0000 C   0  0  0  0  0  0  0  0  0  0  0  0
   -3.7821   -9.7173    0.0000 C   0  0  0  0  0  0  0  0  0  0  0  0
    7.2098   -0.6608    0.0000 N   0  0  0  0  0  0  0  0  0  0  0  0
    5.8240   -0.0868    0.0000 C   0  0  0  0  0  0  0  0  0  0  0  0
    5.2500    1.2990    0.0000 C   0  0  0  0  0  0  0  0  0  0  0  0
    3.7500    1.2990    0.0000 C   0  0  0  0  0  0  0  0  0  0  0  0
    5.8240    2.6849    0.0000 C   0  0  0  0  0  3  0  0  0  0  0  0
    7.2098    3.2589    0.0000 O   0  0  0  0  0  0  0  0  0  0  0  0
    8.5957    2.6849    0.0000 C   0  0  0  0  0  0  0  0  0  0  0  0
    9.5088    3.8749    0.0000 C   0  0  0  0  0  0  0  0  0  0  0  0
   10.9960    3.6791    0.0000 C   0  0  0  0  0  0  0  0  0  0  0  0
   11.9091    4.8691    0.0000 C   0  0  0  0  0  0  0  0  0  0  0  0
   12.8223    6.0592    0.0000 C   0  0  0  0  0  0  0  0  0  0  0  0
   13.7354    7.2492    0.0000 C   0  0  0  0  0  0  0  0  0  0  0  0
   15.2226    7.0534    0.0000 C   0  0  0  0  0  0  0  0  0  0  0  0
   16.1357    8.2434    0.0000 C   0  0  0  0  0  0  0  0  0  0  0  0
   15.5617    9.6292    0.0000 C   0  0  0  0  0  0  0  0  0  0  0  0
   14.0745    9.8250    0.0000 C   0  0  0  0  0  0  0  0  0  0  0  0
   13.1614    8.6350    0.0000 C   0  0  0  0  0  0  0  0  0  0  0  0
   11.5700    2.2933    0.0000 C   0  0  0  0  0  0  0  0  0  0  0  0
   10.6569    1.1032    0.0000 C   0  0  0  0  0  0  0  0  0  0  0  0
    9.1697    1.2990    0.0000 C   0  0  0  0  0  0  0  0  0  0  0  0
    8.5957   -0.0868    0.0000 S   0  0  0  0  0  0  0  0  0  0  0  0
   10.0828   -0.2826    0.0000 O   0  0  0  0  0  0  0  0  0  0  0  0
    8.7915   -1.5739    0.0000 O   0  0  0  0  0  0  0  0  0  0  0  0
  1  2  2  0
  2  3  1  0
  3  4  1  0
  3  5  2  0
  5  6  1  0
  6  7  2  0
  7  1  1  0
  8  9  1  0
  9 10  1  0
 10 11  1  1
 10 12  1  0
 12 13  1  0
 13 14  1  0
 14 15  2  0
 15 16  1  0
 16 17  2  0
 17 18  1  0
 18 19  3  0
 19 20  1  0
 20 21  2  0
 21 22  1  0
 22 23  2  0
 23 24  1  0
 24 25  2  0
 17 26  1  0
 26 27  2  0
 27 28  1  0
 28 29  2  0
 28  8  1  0
 27 14  1  0
 25 20  1  0
 30 31  1  0
 31 32  2  0
 32 33  1  0
 33 34  2  0
 34 35  1  0
 35 30  2  0
 36 37  1  0
 37 38  1  0
 38 39  1  6
 38 40  1  0
 40 41  1  0
 41 42  1  0
 42 43  2  0
 43 44  1  0
 44 45  2  0
 45 46  1  0
 46 47  3  0
 47 48  1  0
 48 49  2  0
 49 50  1  0
 50 51  2  0
 51 52  1  0
 52 53  2  0
 45 54  1  0
 54 55  2  0
 55 56  1  0
 56 57  2  0
 56 36  1  0
 55 42  1  0
 53 48  1  0
 58 59  1  0
 59 60  2  0
 60 61  1  0
 61 62  1  0
 62 63  2  0
 62 64  1  0
 64 58  2  0
 65 66  1  0
 66 67  1  0
 67 68  1  0
 68 69  1  0
 69 70  1  0
 70 71  1  0
 71 72  1  0
 72 65  1  0
 73 74  1  0
 74 75  1  0
 75 76  1  1
 75 77  1  0
 77 78  1  0
 78 79  1  0
 79 80  1  0
 79 81  1  0
 81 82  2  0
 81 83  1  0
 83 84  2  0
 84 85  1  0
 85 86  2  0
 86 87  1  0
 87 88  2  0
 88 89  1  0
 89 90  1  0
 90 91  1  0
 91 92  1  6
 91 73  1  0
 88 83  1  0
 93 94  2  0
 94 95  1  0
 95 96  1  0
 95 97  2  0
 97 98  1  0
 98 99  2  0
 99 93  1  0
100101  1  0
101102  1  0
102103  1  6
102104  1  0
104105  1  0
105106  1  0
106107  2  0
107108  1  0
108109  1  0
109110  3  0
110111  1  0
111112  2  0
112113  1  0
113114  2  0
114115  1  0
115116  2  0
108117  2  0
117118  1  0
118119  2  0
119120  1  0
120121  2  0
120122  2  0
120100  1  0
119106  1  0
116111  1  0
  5 22  1  0
  1 65  1  0
 11 33  1  0
  8 58  1  0
 32 39  1  0
 30 85  1  0
 31103  1  0
 73 97  1  0
M  RAD  4  12   2  40   2  77   2 104   2
M  END
$$$$

     RDKit          2D

 26 27  0  0  0  0  0  0  0  0999 V2000
    2.9095   -2.0850    0.0000 C   0  0  0  0  0  0  0  0  0  0  0  0
    3.1700   -0.6078    0.0000 C   0  0  0  0  0  0  0  0  0  0  0  0
    2.2884    0.6057    0.0000 O   0  0  0  0  0  0  0  0  0  0  0  0
    4.5796   -0.0948    0.0000 C   0  0  0  0  0  0  0  0  0  0  0  0
    4.8400    1.3824    0.0000 O   0  0  0  0  0  0  0  0  0  0  0  0
    4.0586   -3.0492    0.0000 C   0  0  0  0  0  0  0  0  0  0  0  0
    3.7981   -4.5264    0.0000 O   0  0  0  0  0  0  0  0  0  0  0  0
    5.4681   -2.5362    0.0000 C   0  0  0  0  0  0  0  0  0  0  0  0
    5.7286   -1.0590    0.0000 O   0  0  0  0  0  0  0  0  0  0  0  0
    6.6172   -3.5004    0.0000 C   0  0  0  0  0  0  0  0  0  0  0  0
    6.3567   -4.9776    0.0000 O   0  0  0  0  0  0  0  0  0  0  0  0
    8.0268   -2.9873    0.0000 O   0  0  0  0  0  0  0  0  0  0  0  0
    1.5000   -2.5981    0.0000 C   0  0  0  0  0  4  0  0  0  0  0  0
    1.7605   -4.0753    0.0000 C   0  0  0  0  0  0  0  0  0  0  0  0
    0.3509   -3.5623    0.0000 C   0  0  0  0  0  0  0  0  0  0  0  0
   -1.1263   -3.8227    0.0000 C   0  0  0  0  0  0  0  0  0  0  0  0
   -1.6393   -5.2323    0.0000 C   0  0  0  0  0  0  0  0  0  0  0  0
    0.7500   -1.2990    0.0000 C   0  0  0  0  0  0  0  0  0  0  0  0
   -0.7500   -1.2990    0.0000 C   0  0  0  0  0  0  0  0  0  0  0  0
   -1.5000    0.0000    0.0000 C   0  0  0  0  0  0  0  0  0  0  0  0
   -0.7500    1.2990    0.0000 C   0  0  0  0  0  0  0  0  0  0  0  0
   -1.5000    2.5981    0.0000 N   0  0  0  0  0  4  0  0  0  0  0  0
   -3.0000    2.5981    0.0000 C   0  0  0  0  0  0  0  0  0  0  0  0
   -0.7500    3.8971    0.0000 C   0  0  0  0  0  0  0  0  0  0  0  0
    0.7500    1.2990    0.0000 C   0  0  0  0  0  0  0  0  0  0  0  0
    1.5000    0.0000    0.0000 C   0  0  0  0  0  0  0  0  0  0  0  0
  1  2  1  0
  2  3  1  0
  2  4  1  0
  4  5  1  0
  1  6  1  0
  6  7  1  0
  6  8  1  0
  8  9  1  0
  8 10  1  0
 10 11  2  0
 10 12  1  0
 13 14  1  0
 14 15  1  0
 15 16  1  1
 16 17  2  0
 15 13  1  0
 18 19  1  0
 19 20  2  0
 20 21  1  0
 21 22  2  0
 22 23  1  0
 22 24  1  0
 21 25  1  0
 25 26  2  0
 26 18  1  0
  1 13  1  0
 13 18  1  0
M  CHG  1  22   1
M  RAD  1  13   3
M  END
$$$$

     RDKit          2D

 48 53  0  0  0  0  0  0  0  0999 V2000
    9.8285    0.1080    0.0000 C   0  0  0  0  0  0  0  0  0  0  0  0
   11.1988   -0.5021    0.0000 C   0  0  0  0  0  0  0  0  0  0  0  0
   11.3556   -1.9939    0.0000 C   0  0  0  0  0  0  0  0  0  0  0  0
   12.7260   -2.6040    0.0000 N   0  0  0  0  0  0  0  0  0  0  0  0
   10.1421   -2.8755    0.0000 C   0  0  0  0  0  0  0  0  0  0  0  0
   10.2989   -4.3673    0.0000 S   0  0  0  0  0  0  0  0  0  0  0  0
    8.8071   -4.5241    0.0000 O   0  0  0  0  0  0  0  0  0  0  0  0
   11.7907   -4.2105    0.0000 O   0  0  0  0  0  0  0  0  0  0  0  0
   10.4557   -5.8591    0.0000 C   0  0  0  0  0  0  0  0  0  0  0  0
    9.2422   -6.7408    0.0000 C   0  0  0  0  0  0  0  0  0  0  0  0
    8.7718   -2.2654    0.0000 C   0  0  0  0  0  0  0  0  0  0  0  0
    8.6150   -0.7737    0.0000 C   0  0  0  0  0  0  0  0  0  0  0  0
    9.6717    1.5998    0.0000 C   0  0  0  0  0  3  0  0  0  0  0  0
    8.3014    2.2099    0.0000 O   0  0  0  0  0  0  0  0  0  0  0  0
   10.8853    2.4815    0.0000 C   0  0  0  0  0  0  0  0  0  0  0  0
   10.7285    3.9733    0.0000 C   0  0  0  0  0  0  0  0  0  0  0  0
   11.9420    4.8549    0.0000 N   0  0  0  0  0  0  0  0  0  0  0  0
    9.3581    4.5834    0.0000 O   0  0  0  0  0  0  0  0  0  0  0  0
    7.5583   -3.1471    0.0000 C   0  0  0  0  0  3  0  0  0  0  0  0
    7.5583   -4.6471    0.0000 N   0  0  0  0  0  0  0  0  0  0  0  0
    6.1317   -5.1106    0.0000 C   0  0  0  0  0  0  0  0  0  0  0  0
    5.6682   -6.5372    0.0000 C   0  0  0  0  0  0  0  0  0  0  0  0
    5.2046   -7.9638    0.0000 N   0  0  0  0  0  0  0  0  0  0  0  0
    5.2500   -3.8971    0.0000 C   0  0  0  0  0  0  0  0  0  0  0  0
    6.1317   -2.6836    0.0000 C   0  0  0  0  0  0  0  0  0  0  0  0
    3.7500   -3.8971    0.0000 C   0  0  0  0  0  0  0  0  0  0  0  0
    3.0000   -5.1962    0.0000 C   0  0  0  0  0  0  0  0  0  0  0  0
    1.5000   -5.1962    0.0000 O   0  0  0  0  0  0  0  0  0  0  0  0
    0.7500   -3.8971    0.0000 C   0  0  0  0  0  0  0  0  0  0  0  0
   -0.7500   -3.8971    0.0000 C   0  0  0  0  0  0  0  0  0  0  0  0
   -1.5000   -2.5981    0.0000 C   0  0  0  0  0  0  0  0  0  0  0  0
   -0.7500   -1.2990    0.0000 C   0  0  0  0  0  0  0  0  0  0  0  0
    0.7500   -1.2990    0.0000 C   0  0  0  0  0  0  0  0  0  0  0  0
    1.5000   -2.5981    0.0000 C   0  0  0  0  0  0  0  0  0  0  0  0
    3.0000   -2.5981    0.0000 C   0  0  0  0  0  0  0  0  0  0  0  0
    3.7500   -1.2990    0.0000 O   0  0  0  0  0  0  0  0  0  0  0  0
    1.5000    0.0000    0.0000 O   0  0  0  0  0  0  0  0  0  0  0  0
    0.7500    1.2990    0.0000 C   0  0  0  0  0  0  0  0  0  0  0  0
    0.4895    2.7762    0.0000 C   0  0  0  0  0  0  0  0  0  0  0  0
    2.1595    1.8121    0.0000 C   0  0  0  0  0  0  0  0  0  0  0  0
   -0.7500    1.2990    0.0000 C   0  0  0  0  0  0  0  0  0  0  0  0
   -1.5000    0.0000    0.0000 C   0  0  0  0  0  0  0  0  0  0  0  0
   -3.0000   -2.5981    0.0000 O   0  0  0  0  0  0  0  0  0  0  0  0
   -3.7500   -3.8971    0.0000 C   0  0  0  0  0  0  0  0  0  0  0  0
   -4.8991   -4.8613    0.0000 C   0  0  0  0  0  0  0  0  0  0  0  0
   -4.8991   -2.9329    0.0000 C   0  0  0  0  0  0  0  0  0  0  0  0
   -3.0000   -5.1962    0.0000 C   0  0  0  0  0  0  0  0  0  0  0  0
   -1.5000   -5.1962    0.0000 C   0  0  0  0  0  0  0  0  0  0  0  0
  1  2  2  0
  2  3  1  0
  3  4  1  0
  3  5  2  0
  5  6  1  0
  6  7  2  0
  6  8  2  0
  6  9  1  0
  9 10  1  0
  5 11  1  0
 11 12  2  0
 12  1  1  0
 13 14  1  0
 13 15  1  0
 15 16  1  0
 16 17  1  0
 16 18  2  0
 19 20  1  0
 20 21  1  0
 21 22  1  1
 22 23  3  0
 21 24  1  0
 24 25  1  0
 25 19  1  0
 26 27  2  0
 27 28  1  0
 28 29  1  0
 29 30  2  0
 30 31  1  0
 31 32  2  0
 32 33  1  0
 33 34  2  0
 34 35  1  0
 35 36  2  0
 33 37  1  0
 37 38  1  0
 38 39  1  0
 38 40  1  0
 38 41  1  0
 41 42  1  0
 31 43  1  0
 43 44  1  0
 44 45  1  0
 44 46  1  0
 44 47  1  0
 47 48  2  0
 35 26  1  0
 34 29  1  0
 48 30  1  0
 42 32  1  0
  1 13  1  0
 11 19  1  0
 24 26  1  0
M  RAD  2  13   2  19   2
M  END
$$$$

     RDKit          2D

131149  0  0  0  0  0  0  0  0999 V2000
    7.8819   -2.2044    0.0000 C   0  0  0  0  0  0  0  0  0  0  0  0
    9.1809   -2.9544    0.0000 C   0  0  0  0  0  0  0  0  0  0  0  0
   10.4800   -3.7044    0.0000 C   0  0  0  0  0  0  0  0  0  0  0  0
    9.9309   -1.6554    0.0000 N   0  0  0  0  0  0  0  0  0  0  0  0
   11.4309   -1.6554    0.0000 C   0  0  0  0  0  0  0  0  0  0  0  0
   12.1809   -0.3563    0.0000 C   0  0  0  0  0  0  0  0  0  0  0  0
   12.1809   -2.9544    0.0000 C   0  0  0  0  0  0  0  0  0  0  0  0
   13.6809   -2.9544    0.0000 C   0  0  0  0  0  0  0  0  0  0  0  0
   14.4309   -4.2535    0.0000 O   0  0  0  0  0  0  0  0  0  0  0  0
    6.1809   -5.5525    0.0000 C   0  0  0  0  0  0  0  0  0  0  0  0
    6.9309   -6.8515    0.0000 C   0  0  0  0  0  0  0  0  0  0  0  0
    8.4309   -6.8515    0.0000 C   0  0  0  0  0  0  0  0  0  0  0  0
    9.1809   -8.1506    0.0000 C   0  0  0  0  0  0  0  0  0  0  0  0
    9.1809   -5.5525    0.0000 C   0  0  0  0  0  0  0  0  0  0  0  0
    8.4309   -4.2535    0.0000 C   0  0  0  0  0  0  0  0  0  0  0  0
    6.9309   -4.2535    0.0000 C   0  0  0  0  0  0  0  0  0  0  0  0
    4.6809   -5.5525    0.0000 C   0  0  0  0  0  0  0  0  0  0  0  0
    3.9309   -4.2535    0.0000 C   0  0  0  0  0  0  0  0  0  0  0  0
    2.4309   -4.2535    0.0000 C   0  0  0  0  0  0  0  0  0  0  0  0
    1.6809   -2.9544    0.0000 C   0  0  0  0  0  0  0  0  0  0  0  0
    1.6809   -5.5525    0.0000 C   0  0  0  0  0  0  0  0  0  0  0  0
    2.4309   -6.8515    0.0000 C   0  0  0  0  0  0  0  0  0  0  0  0
    3.9309   -6.8515    0.0000 C   0  0  0  0  0  0  0  0  0  0  0  0
    0.1809   -5.5525    0.0000 C   0  0  0  0  0  0  0  0  0  0  0  0
   -0.5691   -6.8515    0.0000 C   0  0  0  0  0  0  0  0  0  0  0  0
   -2.0691   -6.8515    0.0000 C   0  0  0  0  0  0  0  0  0  0  0  0
   -2.8191   -5.5525    0.0000 C   0  0  0  0  0  0  0  0  0  0  0  0
   -1.4095   -5.0395    0.0000 C   0  0  0  0  0  0  0  0  0  0  0  0
   -0.2605   -4.0753    0.0000 C   0  0  0  0  0  0  0  0  0  0  0  0
    0.4895   -2.7762    0.0000 O   0  0  0  0  0  0  0  0  0  0  0  0
    0.7500   -1.2990    0.0000 C   0  0  0  0  0  0  0  0  0  0  0  0
    1.5000    0.0000    0.0000 C   0  0  0  0  0  0  0  0  0  0  0  0
    0.7500    1.2990    0.0000 C   0  0  0  0  0  0  0  0  0  0  0  0
   -0.7500    1.2990    0.0000 C   0  0  0  0  0  0  0  0  0  0  0  0
   -1.5000    0.0000    0.0000 C   0  0  0  0  0  0  0  0  0  0  0  0
   -0.7500   -1.2990    0.0000 C   0  0  0  0  0  0  0  0  0  0  0  0
   -2.8191    2.9544    0.0000 C   0  0  0  0  0  0  0  0  0  0  0  0
   -4.3191    2.9544    0.0000 C   0  0  0  0  0  0  0  0  0  0  0  0
   -5.7286    2.4414    0.0000 C   0  0  0  0  0  0  0  0  0  0  0  0
   -5.9891    3.9186    0.0000 C   0  0  0  0  0  0  0  0  0  0  0  0
   -7.3986    4.4316    0.0000 C   0  0  0  0  0  0  0  0  0  0  0  0
   -8.5477    3.4675    0.0000 C   0  0  0  0  0  0  0  0  0  0  0  0
   -8.2872    1.9902    0.0000 C   0  0  0  0  0  0  0  0  0  0  0  0
   -6.8777    1.4772    0.0000 C   0  0  0  0  0  0  0  0  0  0  0  0
   -7.6277    0.1782    0.0000 O   0  0  0  0  0  0  0  0  0  0  0  0
   -7.8882   -1.2990    0.0000 C   0  0  0  0  0  0  0  0  0  0  0  0
   -7.6277   -2.7762    0.0000 C   0  0  0  0  0  0  0  0  0  0  0  0
   -6.8777   -4.0753    0.0000 C   0  0  0  0  0  0  0  0  0  0  0  0
   -8.2872   -4.5883    0.0000 C   0  0  0  0  0  0  0  0  0  0  0  0
   -9.4487   -3.3762    0.0000 C   0  0  0  0  0  0  0  0  0  0  0  0
   -9.2681   -1.8871    0.0000 C   0  0  0  0  0  0  0  0  0  0  0  0
   -8.5477   -6.0655    0.0000 C   0  0  0  0  0  0  0  0  0  0  0  0
   -7.3986   -7.0297    0.0000 C   0  0  0  0  0  0  0  0  0  0  0  0
   -5.9891   -6.5167    0.0000 N   0  0  0  0  0  0  0  0  0  0  0  0
   -4.8400   -7.4809    0.0000 C   0  0  0  0  0  0  0  0  0  0  0  0
   -5.7286   -5.0395    0.0000 C   0  0  0  0  0  0  0  0  0  0  0  0
   -4.3191   -5.5525    0.0000 C   0  0  0  0  0  0  0  0  0  0  0  0
   -9.6116    1.2860    0.0000 O   0  0  0  0  0  0  0  0  0  0  0  0
  -10.6907    2.3280    0.0000 C   0  0  0  0  0  0  0  0  0  0  0  0
  -10.0331    3.6762    0.0000 O   0  0  0  0  0  0  0  0  0  0  0  0
   -5.8191    5.5525    0.0000 C   0  0  0  0  0  0  0  0  0  0  0  0
   -4.3191    5.5525    0.0000 C   0  0  0  0  0  0  0  0  0  0  0  0
   -3.5691    4.2535    0.0000 N   0  0  0  0  0  0  0  0  0  0  0  0
   -2.0691    4.2535    0.0000 C   0  0  0  0  0  0  0  0  0  0  0  0
  -16.5120   -5.2249    0.0000 N   0  0  0  0  0  0  0  0  0  0  0  0
  -17.6573   -6.1936    0.0000 C   0  0  0  0  0  0  0  0  0  0  0  0
  -18.2688   -7.5632    0.0000 C   0  0  0  0  0  0  0  0  0  0  0  0
  -19.7403   -7.2718    0.0000 C   0  0  0  0  0  0  0  0  0  0  0  0
  -18.2256   -9.0626    0.0000 C   0  0  0  0  0  3  0  0  0  0  0  0
  -17.5360  -10.3947    0.0000 O   0  0  0  0  0  0  0  0  0  0  0  0
  -16.3367  -11.2957    0.0000 C   0  0  0  0  0  0  0  0  0  0  0  0
  -14.8653  -11.5872    0.0000 C   0  0  0  0  0  0  0  0  0  0  0  0
  -13.4132  -11.2113    0.0000 C   0  0  0  0  0  0  0  0  0  0  0  0
  -12.2679  -10.2426    0.0000 C   0  0  0  0  0  0  0  0  0  0  0  0
  -11.6564   -8.8729    0.0000 C   0  0  0  0  0  0  0  0  0  0  0  0
  -10.1849   -9.1644    0.0000 C   0  0  0  0  0  0  0  0  0  0  0  0
  -11.6997   -7.3736    0.0000 O   0  0  0  0  0  0  0  0  0  0  0  0
  -12.3892   -6.0415    0.0000 C   0  0  0  0  0  0  0  0  0  0  0  0
  -11.0093   -5.4534    0.0000 C   0  0  0  0  0  0  0  0  0  0  0  0
  -10.8286   -3.9643    0.0000 C   0  0  0  0  0  0  0  0  0  0  0  0
  -12.0279   -3.0633    0.0000 C   0  0  0  0  0  0  0  0  0  0  0  0
  -13.4078   -3.6514    0.0000 C   0  0  0  0  0  0  0  0  0  0  0  0
  -13.5885   -5.1405    0.0000 C   0  0  0  0  0  0  0  0  0  0  0  0
  -15.0599   -4.8490    0.0000 C   0  0  0  0  0  0  0  0  0  0  0  0
  -15.1032   -3.3496    0.0000 O   0  0  0  0  0  0  0  0  0  0  0  0
  -20.7284   -8.4004    0.0000 C   0  0  0  0  0  3  0  0  0  0  0  0
  -22.1998   -8.1089    0.0000 C   0  0  0  0  0  0  0  0  0  0  0  0
  -20.2450   -9.8204    0.0000 N   0  0  0  0  0  0  0  0  0  0  0  0
   13.6809   -5.5525    0.0000 C   0  0  0  0  0  0  0  0  0  0  0  0
   12.9309   -6.8515    0.0000 C   0  0  0  0  0  0  0  0  0  0  0  0
   11.4309   -6.8515    0.0000 C   0  0  0  0  0  0  0  0  0  0  0  0
   10.6809   -5.5525    0.0000 C   0  0  0  0  0  0  0  0  0  0  0  0
   11.4309   -4.2535    0.0000 C   0  0  0  0  0  0  0  0  0  0  0  0
   12.9309   -4.2535    0.0000 C   0  0  0  0  0  0  0  0  0  0  0  0
  -17.2016   -3.8928    0.0000 C   0  0  0  0  0  0  0  0  0  0  0  0
  -16.3927   -2.6295    0.0000 C   0  0  0  0  0  0  0  0  0  0  0  0
  -17.0823   -1.2974    0.0000 O   0  0  0  0  0  0  0  0  0  0  0  0
  -18.5807   -1.2286    0.0000 C   0  0  0  0  0  0  0  0  0  0  0  0
  -19.2703    0.1036    0.0000 C   0  0  0  0  0  0  0  0  0  0  0  0
  -20.7687    0.1724    0.0000 C   0  0  0  0  0  0  0  0  0  0  0  0
  -21.4582    1.5045    0.0000 O   0  0  0  0  0  0  0  0  0  0  0  0
  -21.5775   -1.0908    0.0000 C   0  0  0  0  0  0  0  0  0  0  0  0
  -20.8880   -2.4229    0.0000 C   0  0  0  0  0  0  0  0  0  0  0  0
  -21.6968   -3.6861    0.0000 O   0  0  0  0  0  0  0  0  0  0  0  0
  -19.3896   -2.4918    0.0000 C   0  0  0  0  0  0  0  0  0  0  0  0
  -18.7000   -3.8239    0.0000 C   0  0  0  0  0  0  0  0  0  0  0  0
  -19.5089   -5.0871    0.0000 O   0  0  0  0  0  0  0  0  0  0  0  0
    9.1809    0.0456    0.0000 C   0  0  0  0  0  3  0  0  0  0  0  0
    7.8819   -0.7044    0.0000 C   0  0  0  0  0  0  0  0  0  0  0  0
    6.5828    0.0456    0.0000 C   0  0  0  0  0  3  0  0  0  0  0  0
    5.2838   -0.7044    0.0000 O   0  0  0  0  0  0  0  0  0  0  0  0
    6.5828    1.5456    0.0000 C   0  0  0  0  0  0  0  0  0  0  0  0
    7.8819    2.2956    0.0000 C   0  0  0  0  0  0  0  0  0  0  0  0
    7.8819    3.7956    0.0000 C   0  0  0  0  0  0  0  0  0  0  0  0
    6.5828    4.5456    0.0000 O   0  0  0  0  0  0  0  0  0  0  0  0
    9.1809    4.5456    0.0000 C   0  0  0  0  0  0  0  0  0  0  0  0
   10.4800    3.7956    0.0000 C   0  0  0  0  0  0  0  0  0  0  0  0
   11.7790    4.5456    0.0000 C   0  0  0  0  0  0  0  0  0  0  0  0
   13.0780    3.7956    0.0000 O   0  0  0  0  0  0  0  0  0  0  0  0
   11.7790    6.0456    0.0000 C   0  0  0  0  0  0  0  0  0  0  0  0
   13.0780    6.7956    0.0000 C   0  0  0  0  0  0  0  0  0  0  0  0
   14.3771    6.0456    0.0000 O   0  0  0  0  0  0  0  0  0  0  0  0
   13.0780    8.2956    0.0000 C   0  0  0  0  0  0  0  0  0  0  0  0
   11.7790    9.0456    0.0000 C   0  0  0  0  0  0  0  0  0  0  0  0
   10.4800    8.2956    0.0000 C   0  0  0  0  0  0  0  0  0  0  0  0
   10.4800    6.7956    0.0000 C   0  0  0  0  0  0  0  0  0  0  0  0
    9.1809    6.0456    0.0000 C   0  0  0  0  0  0  0  0  0  0  0  0
    7.8819    6.7956    0.0000 O   0  0  0  0  0  0  0  0  0  0  0  0
   10.4800    2.2956    0.0000 C   0  0  0  0  0  0  0  0  0  0  0  0
   11.7790    1.5456    0.0000 O   0  0  0  0  0  0  0  0  0  0  0  0
    9.1809    1.5456    0.0000 C   0  0  0  0  0  0  0  0  0  0  0  0
  1  2  1  0
  2  3  1  0
  2  4  1  0
  4  5  2  3
  5  6  1  0
  5  7  1  0
  7  8  1  0
  8  9  2  0
 10 11  2  0
 11 12  1  0
 12 13  1  0
 12 14  2  0
 14 15  1  0
 15 16  2  0
 16 10  1  0
 17 18  2  0
 18 19  1  0
 19 20  1  0
 19 21  2  0
 21 22  1  0
 22 23  2  0
 23 17  1  0
 24 25  2  0
 25 26  1  0
 26 27  2  0
 27 28  1  0
 28 29  2  0
 29 30  1  0
 30 31  1  0
 31 32  2  0
 32 33  1  0
 33 34  2  0
 34 35  1  0
 35 36  2  0
 34 37  1  0
 37 38  1  0
 38 39  1  0
 39 40  1  0
 40 41  2  0
 41 42  1  0
 42 43  2  0
 43 44  1  0
 44 45  1  0
 45 46  1  0
 46 47  2  0
 47 48  1  0
 48 49  2  0
 49 50  1  0
 50 51  2  0
 49 52  1  0
 52 53  1  0
 53 54  1  0
 54 55  1  0
 54 56  1  0
 56 57  1  0
 43 58  1  0
 58 59  1  0
 59 60  1  0
 40 61  1  0
 61 62  1  0
 62 63  1  0
 63 64  1  0
 29 24  1  0
 36 31  1  0
 63 38  1  0
 57 27  1  0
 44 39  2  0
 51 46  1  0
 60 42  1  0
 56 48  1  0
 65 66  1  0
 66 67  1  0
 67 68  1  6
 67 69  1  0
 69 70  1  0
 70 71  1  0
 71 72  1  0
 72 73  1  0
 73 74  1  0
 74 75  1  0
 75 76  1  6
 75 77  1  0
 77 78  1  0
 78 79  2  0
 79 80  1  0
 80 81  2  0
 81 82  1  0
 82 83  2  0
 83 84  1  0
 84 85  2  0
 84 65  1  0
 83 78  1  0
 86 87  1  0
 86 88  1  0
 89 90  2  0
 90 91  1  0
 91 92  2  0
 92 93  1  0
 93 94  2  0
 94 89  1  0
 95 96  2  0
 96 97  1  0
 97 98  1  0
 98 99  2  0
 99100  1  0
100101  1  0
100102  2  0
102103  1  0
103104  1  0
103105  2  0
105106  1  0
106107  2  0
106 95  1  0
105 98  1  0
108109  1  0
109110  1  0
110111  1  0
110112  1  0
112113  2  0
113114  1  0
114115  2  0
114116  1  0
116117  2  0
117118  1  0
118119  1  0
118120  2  0
120121  1  0
121122  1  0
121123  2  0
123124  1  0
124125  2  0
125126  1  0
126127  2  0
127128  1  0
117129  1  0
129130  2  0
129131  1  0
131108  1  0
131113  1  0
127116  1  0
126120  1  0
  2 15  1  0
  1109  1  0
 10 17  1  0
 14 92  1  0
 21 24  1  0
 50 80  1  0
 68 86  1  0
 65 95  1  0
M  RAD  4  69   2  86   2 108   2 110   2
M  END
$$$$

     RDKit          2D

 98110  0  0  0  0  0  0  0  0999 V2000
    3.0221   -5.8209    0.0000 C   0  0  0  0  0  0  0  0  0  0  0  0
    2.5091   -4.4113    0.0000 C   0  0  0  0  0  0  0  0  0  0  0  0
    1.0319   -4.1509    0.0000 C   0  0  0  0  0  0  0  0  0  0  0  0
    0.9486   -3.3581    0.0000 C   0  0  0  0  0  0  0  0  0  0  0  0
    0.0677   -5.2999    0.0000 C   0  0  0  0  0  0  0  0  0  0  0  0
    0.5807   -6.7095    0.0000 C   0  0  0  0  0  0  0  0  0  0  0  0
    2.0579   -6.9700    0.0000 C   0  0  0  0  0  0  0  0  0  0  0  0
   -1.9226   -3.6299    0.0000 C   0  0  0  0  0  0  0  0  0  0  0  0
   -3.3998   -3.3695    0.0000 N   0  0  0  0  0  0  0  0  0  0  0  0
   -4.3640   -4.5185    0.0000 C   0  0  0  0  0  0  0  0  0  0  0  0
   -5.8412   -4.2581    0.0000 O   0  0  0  0  0  0  0  0  0  0  0  0
   -3.8509   -5.9281    0.0000 C   0  0  0  0  0  0  0  0  0  0  0  0
   -2.3737   -6.1885    0.0000 C   0  0  0  0  0  0  0  0  0  0  0  0
   -1.4095   -5.0395    0.0000 N   0  0  0  0  0  0  0  0  0  0  0  0
   -2.1650   -7.6739    0.0000 C   0  0  0  0  0  0  0  0  0  0  0  0
   -3.5132   -8.3315    0.0000 N   0  0  0  0  0  0  0  0  0  0  0  0
   -4.5551   -7.2525    0.0000 N   0  0  0  0  0  0  0  0  0  0  0  0
   -6.0405   -7.4612    0.0000 C   0  0  0  0  0  0  0  0  0  0  0  0
   -0.9584   -2.4809    0.0000 C   0  0  0  0  0  0  0  0  0  0  0  0
    0.5188   -2.7413    0.0000 C   0  0  0  0  0  0  0  0  0  0  0  0
    1.4830   -1.5923    0.0000 C   0  0  0  0  0  0  0  0  0  0  0  0
    0.9700   -0.1827    0.0000 N   0  0  0  0  0  0  0  0  0  0  0  0
   -0.5072    0.0777    0.0000 C   0  0  0  0  0  0  0  0  0  0  0  0
   -1.0203    1.4873    0.0000 C   0  0  0  0  0  0  0  0  0  0  0  0
   -2.4975    1.7478    0.0000 C   0  0  0  0  0  0  0  0  0  0  0  0
   -3.0105    3.1573    0.0000 Cl  0  0  0  0  0  0  0  0  0  0  0  0
   -3.4617    0.5987    0.0000 C   0  0  0  0  0  0  0  0  0  0  0  0
   -2.9486   -0.8109    0.0000 C   0  0  0  0  0  0  0  0  0  0  0  0
   -1.4714   -1.0713    0.0000 C   0  0  0  0  0  0  0  0  0  0  0  0
    4.4993   -6.0814    0.0000 C   0  0  0  0  0  3  0  0  0  0  0  0
    5.5783   -5.0394    0.0000 C   0  0  0  0  0  0  0  0  0  0  0  0
    6.9027   -5.7436    0.0000 O   0  0  0  0  0  0  0  0  0  0  0  0
    6.6423   -7.2208    0.0000 S   0  0  0  0  0  0  0  0  0  0  0  0
    8.1386   -7.3254    0.0000 O   0  0  0  0  0  0  0  0  0  0  0  0
    6.6946   -8.7199    0.0000 O   0  0  0  0  0  0  0  0  0  0  0  0
    5.1569   -7.4295    0.0000 N   0  0  0  0  0  0  0  0  0  0  0  0
   -0.3835   -7.8585    0.0000 C   0  0  0  0  0  0  0  0  0  0  0  0
   -0.2268   -9.3503    0.0000 C   0  0  0  0  0  0  0  0  0  0  0  0
   -2.3737   -6.1885    0.0000 O   0  0  0  0  0  0  0  0  0  0  0  0
   -1.8607   -7.5981    0.0000 N   0  0  0  0  0  0  0  0  0  0  0  0
   -2.8249   -8.7471    0.0000 C   0  0  0  0  0  0  0  0  0  0  0  0
   -2.3118  -10.1567    0.0000 C   0  0  0  0  0  0  0  0  0  0  0  0
   -0.9416  -10.7669    0.0000 O   0  0  0  0  0  0  0  0  0  0  0  0
   -3.2760  -11.3057    0.0000 N   0  0  0  0  0  0  0  0  0  0  0  0
   -2.7630  -12.7153    0.0000 C   0  0  0  0  0  0  0  0  0  0  0  0
   -1.4035  -13.3492    0.0000 C   0  0  0  0  0  0  0  0  0  0  0  0
    0.0060  -12.8362    0.0000 O   0  0  0  0  0  0  0  0  0  0  0  0
   -2.0375  -14.7087    0.0000 N   0  0  0  0  0  0  0  0  0  0  0  0
   -1.9067  -16.2030    0.0000 C   0  0  0  0  0  0  0  0  0  0  0  0
   -0.5473  -16.8369    0.0000 C   0  0  0  0  0  0  0  0  0  0  0  0
    0.6815  -15.9765    0.0000 O   0  0  0  0  0  0  0  0  0  0  0  0
   -0.4165  -18.3312    0.0000 O   0  0  0  0  0  0  0  0  0  0  0  0
   -3.1355  -17.0633    0.0000 C   0  0  0  0  0  0  0  0  0  0  0  0
   -3.0047  -18.5576    0.0000 C   0  0  0  0  0  0  0  0  0  0  0  0
   -4.2334  -19.4180    0.0000 C   0  0  0  0  0  0  0  0  0  0  0  0
   -4.4949  -16.4294    0.0000 C   0  0  0  0  0  0  0  0  0  0  0  0
   -4.6256  -14.9351    0.0000 S   0  0  0  0  0  0  0  0  0  0  0  0
   -3.3969  -14.0747    0.0000 C   0  0  0  0  0  0  0  0  0  0  0  0
   -1.4095   -5.0395    0.0000 N   0  0  0  0  0  0  0  0  0  0  0  0
    0.0000   -5.5525    0.0000 C   0  0  0  0  0  0  0  0  0  0  0  0
    1.4095   -5.0395    0.0000 C   0  0  0  0  0  0  0  0  0  0  0  0
    2.3737   -6.1885    0.0000 C   0  0  0  0  0  0  0  0  0  0  0  0
    2.1595   -3.7404    0.0000 C   0  0  0  0  0  3  0  0  0  0  0  0
    1.8991   -2.2632    0.0000 O   0  0  0  0  0  0  0  0  0  0  0  0
    0.7500   -1.2990    0.0000 C   0  0  0  0  0  0  0  0  0  0  0  0
    1.5000    0.0000    0.0000 C   0  0  0  0  0  0  0  0  0  0  0  0
    0.7500    1.2990    0.0000 C   0  0  0  0  0  0  0  0  0  0  0  0
   -0.7500    1.2990    0.0000 C   0  0  0  0  0  0  0  0  0  0  0  0
   -1.5000    0.0000    0.0000 C   0  0  0  0  0  0  0  0  0  0  0  0
   -0.7500   -1.2990    0.0000 C   0  0  0  0  0  0  0  0  0  0  0  0
   -1.8991   -2.2632    0.0000 C   0  0  0  0  0  0  0  0  0  0  0  0
   -2.1595   -3.7404    0.0000 C   0  0  0  0  0  0  0  0  0  0  0  0
   -3.6368   -4.0009    0.0000 O   0  0  0  0  0  0  0  0  0  0  0  0
    1.8607   -7.5981    0.0000 S   0  0  0  0  0  0  0  0  0  0  0  0
    3.2702   -8.1111    0.0000 O   0  0  0  0  0  0  0  0  0  0  0  0
    0.6172   -6.7592    0.0000 O   0  0  0  0  0  0  0  0  0  0  0  0
    1.3477   -9.0076    0.0000 C   0  0  0  0  0  0  0  0  0  0  0  0
   -0.1296   -9.2681    0.0000 C   0  0  0  0  0  0  0  0  0  0  0  0
   -0.6426  -10.6776    0.0000 C   0  0  0  0  0  0  0  0  0  0  0  0
    0.3216  -11.8267    0.0000 C   0  0  0  0  0  0  0  0  0  0  0  0
    1.7988  -11.5662    0.0000 C   0  0  0  0  0  0  0  0  0  0  0  0
    2.3118  -10.1567    0.0000 C   0  0  0  0  0  0  0  0  0  0  0  0
    3.7891   -9.8962    0.0000 Cl  0  0  0  0  0  0  0  0  0  0  0  0
   -1.0937   -8.1190    0.0000 C   0  0  0  0  0  0  0  0  0  0  0  0
   -0.5807   -6.7095    0.0000 C   0  0  0  0  0  0  0  0  0  0  0  0
   -1.5449   -5.5604    0.0000 C   0  0  0  0  0  0  0  0  0  0  0  0
   -3.0221   -5.8209    0.0000 C   0  0  0  0  0  0  0  0  0  0  0  0
   -3.9863   -4.6718    0.0000 C   0  0  0  0  0  0  0  0  0  0  0  0
   -4.9505   -3.5228    0.0000 C   0  0  0  0  0  0  0  0  0  0  0  0
   -5.9146   -2.3737    0.0000 C   0  0  0  0  0  0  0  0  0  0  0  0
   -5.4016   -0.9641    0.0000 C   0  0  0  0  0  0  0  0  0  0  0  0
   -6.3658    0.1849    0.0000 C   0  0  0  0  0  0  0  0  0  0  0  0
   -7.8430   -0.0756    0.0000 C   0  0  0  0  0  0  0  0  0  0  0  0
   -8.3560   -1.4851    0.0000 C   0  0  0  0  0  0  0  0  0  0  0  0
   -9.8332   -1.7456    0.0000 F   0  0  0  0  0  0  0  0  0  0  0  0
   -7.3919   -2.6342    0.0000 C   0  0  0  0  0  0  0  0  0  0  0  0
   -3.5351   -7.2304    0.0000 C   0  0  0  0  0  0  0  0  0  0  0  0
   -2.5709   -8.3795    0.0000 C   0  0  0  0  0  0  0  0  0  0  0  0
  1  2  2  0
  2  3  1  0
  3  4  1  0
  3  5  2  0
  5  6  1  0
  6  7  2  0
  7  1  1  0
  8  9  2  0
  9 10  1  0
 10 11  2  0
 10 12  1  0
 12 13  2  0
 13 14  1  0
 13 15  1  0
 15 16  2  0
 16 17  1  0
 17 18  1  0
 14  8  1  0
 17 12  1  0
 19 20  2  0
 20 21  1  0
 21 22  2  0
 22 23  1  0
 23 24  2  0
 24 25  1  0
 25 26  1  0
 25 27  2  0
 27 28  1  0
 28 29  2  0
 29 19  1  0
 29 23  1  0
 30 31  1  0
 31 32  1  0
 32 33  1  0
 33 34  2  0
 33 35  2  0
 33 36  1  0
 36 30  1  0
 37 38  1  0
 39 40  1  0
 40 41  1  0
 41 42  1  0
 42 43  2  0
 42 44  1  0
 44 45  2  3
 45 46  1  0
 46 47  2  0
 46 48  1  0
 48 49  1  0
 49 50  1  0
 50 51  2  0
 50 52  1  0
 49 53  2  0
 53 54  1  0
 54 55  2  0
 53 56  1  0
 56 57  1  0
 58 57  1  6
 58 45  1  0
 58 48  1  0
 59 60  1  0
 60 61  1  0
 61 62  1  1
 61 63  1  0
 63 64  1  0
 64 65  1  0
 65 66  2  0
 66 67  1  0
 67 68  2  0
 68 69  1  0
 69 70  2  0
 70 71  1  0
 71 72  1  0
 72 73  2  0
 72 59  1  0
 70 65  1  0
 74 75  2  0
 74 76  2  0
 74 77  1  0
 77 78  1  0
 78 79  2  0
 79 80  1  0
 80 81  2  0
 81 82  1  0
 82 83  1  0
 82 77  2  0
 84 85  2  0
 85 86  1  0
 86 87  2  0
 87 88  1  0
 88 89  3  0
 89 90  1  0
 90 91  2  0
 91 92  1  0
 92 93  2  0
 93 94  1  0
 94 95  1  0
 94 96  2  0
 87 97  1  0
 97 98  2  0
 98 84  1  0
 96 90  1  0
  5 14  1  0
  1 30  1  0
  6 37  1  0
  8 19  1  0
 37 40  1  0
 39 59  1  0
 62 74  1  0
 78 84  1  0
M  RAD  2  30   2  63   2
M  END
$$$$

     RDKit          2D

108122  0  0  0  0  0  0  0  0999 V2000
   -3.4491    6.3777    0.0000 C   0  0  0  0  0  3  0  0  0  0  0  0
   -2.6991    5.0786    0.0000 C   0  0  0  0  0  0  0  0  0  0  0  0
   -1.2018    4.9889    0.0000 C   0  0  0  0  0  3  0  0  0  0  0  0
   -0.4086    3.6844    0.0000 C   0  0  0  0  0  3  0  0  0  0  0  0
    0.7062    2.6807    0.0000 C   0  0  0  0  0  0  0  0  0  0  0  0
    0.3943    1.2135    0.0000 C   0  0  0  0  0  0  0  0  0  0  0  0
    1.2760    0.0000    0.0000 C   0  0  0  0  0  0  0  0  0  0  0  0
    2.7760    0.0000    0.0000 O   0  0  0  0  0  0  0  0  0  0  0  0
    0.3943   -1.2135    0.0000 C   0  0  0  0  0  0  0  0  0  0  0  0
    1.6933   -1.9635    0.0000 C   0  0  0  0  0  0  0  0  0  0  0  0
   -0.2158   -2.5838    0.0000 C   0  0  0  0  0  0  0  0  0  0  0  0
   -1.0323   -0.7500    0.0000 C   0  0  0  0  0  0  0  0  0  0  0  0
   -1.0323    0.7500    0.0000 C   0  0  0  0  0  0  0  0  0  0  0  0
   -2.1470    1.7537    0.0000 C   0  0  0  0  0  0  0  0  0  0  0  0
   -3.5736    1.2902    0.0000 C   0  0  0  0  0  0  0  0  0  0  0  0
   -1.8351    3.2209    0.0000 C   0  0  0  0  0  3  0  0  0  0  0  0
   -3.4571    2.4842    0.0000 C   0  0  0  0  0  3  0  0  0  0  0  0
   -3.7028    3.9639    0.0000 C   0  0  0  0  0  0  0  0  0  0  0  0
   -4.8894    3.0463    0.0000 O   0  0  0  0  0  0  0  0  0  0  0  0
   -5.0732    4.5740    0.0000 C   0  0  0  0  0  0  0  0  0  0  0  0
   -4.9164    6.0658    0.0000 C   0  0  0  0  0  0  0  0  0  0  0  0
   -6.2408    6.7699    0.0000 C   0  0  0  0  0  0  0  0  0  0  0  0
   -0.8337   15.4459    0.0000 N   0  0  0  0  0  0  0  0  0  0  0  0
   -2.2040   16.0560    0.0000 C   0  0  0  0  0  0  0  0  0  0  0  0
   -3.6958   15.8992    0.0000 C   0  0  0  0  0  0  0  0  0  0  0  0
   -4.2333   17.2996    0.0000 C   0  0  0  0  0  0  0  0  0  0  0  0
   -4.9093   15.0176    0.0000 C   0  0  0  0  0  3  0  0  0  0  0  0
   -5.5194   13.6472    0.0000 C   0  0  0  0  0  0  0  0  0  0  0  0
   -5.3626   12.1555    0.0000 N   0  0  0  0  0  0  0  0  0  0  0  0
   -6.7630   11.6179    0.0000 C   0  0  0  0  0  0  0  0  0  0  0  0
   -4.4809   10.9419    0.0000 C   0  0  0  0  0  0  0  0  0  0  0  0
   -5.6789   10.0393    0.0000 O   0  0  0  0  0  0  0  0  0  0  0  0
   -3.1106   10.3318    0.0000 C   0  0  0  0  0  0  0  0  0  0  0  0
   -3.7207    8.9615    0.0000 C   0  0  0  0  0  0  0  0  0  0  0  0
   -2.8390    7.7480    0.0000 C   0  0  0  0  0  0  0  0  0  0  0  0
   -1.3473    7.9048    0.0000 C   0  0  0  0  0  0  0  0  0  0  0  0
   -0.7372    9.2751    0.0000 C   0  0  0  0  0  0  0  0  0  0  0  0
   -1.6188   10.4886    0.0000 C   0  0  0  0  0  0  0  0  0  0  0  0
   -0.4053   11.3703    0.0000 O   0  0  0  0  0  0  0  0  0  0  0  0
    0.2048   12.7406    0.0000 C   0  0  0  0  0  0  0  0  0  0  0  0
    0.0480   14.2324    0.0000 C   0  0  0  0  0  0  0  0  0  0  0  0
    1.4484   14.7700    0.0000 C   0  0  0  0  0  0  0  0  0  0  0  0
   -2.9499    4.2246    0.0000 C   0  0  0  0  0  0  0  0  0  0  0  0
   -4.3764    3.7611    0.0000 C   0  0  0  0  0  0  0  0  0  0  0  0
   -5.4912    4.7648    0.0000 C   0  0  0  0  0  0  0  0  0  0  0  0
   -5.1793    6.2320    0.0000 C   0  0  0  0  0  0  0  0  0  0  0  0
   -6.6059    5.7685    0.0000 C   0  0  0  0  0  0  0  0  0  0  0  0
   -7.7206    6.7722    0.0000 C   0  0  0  0  0  0  0  0  0  0  0  0
   -7.4087    8.2394    0.0000 N   0  0  0  0  0  0  0  0  0  0  0  0
   -5.9821    8.7029    0.0000 C   0  0  0  0  0  0  0  0  0  0  0  0
   -4.8674    7.6992    0.0000 C   0  0  0  0  0  0  0  0  0  0  0  0
   -3.7527    6.6955    0.0000 C   0  0  0  0  0  0  0  0  0  0  0  0
   -2.6380    5.6918    0.0000 O   0  0  0  0  0  0  0  0  0  0  0  0
   -5.7149   17.5343    0.0000 C   0  0  0  0  0  0  0  0  0  0  0  0
   -6.2524   18.9346    0.0000 C   0  0  0  0  0  0  0  0  0  0  0  0
   -5.3084   20.1004    0.0000 C   0  0  0  0  0  0  0  0  0  0  0  0
   -3.8269   19.8657    0.0000 C   0  0  0  0  0  0  0  0  0  0  0  0
   -5.8460   21.5007    0.0000 C   0  0  0  0  0  0  0  0  0  0  0  0
   -7.3275   21.7354    0.0000 C   0  0  0  0  0  0  0  0  0  0  0  0
   -8.2715   20.5697    0.0000 C   0  0  0  0  0  0  0  0  0  0  0  0
   -7.7339   19.1693    0.0000 C   0  0  0  0  0  0  0  0  0  0  0  0
   -7.7078   17.6695    0.0000 C   0  0  0  0  0  0  0  0  0  0  0  0
   -9.2064   18.8831    0.0000 C   0  0  0  0  0  0  0  0  0  0  0  0
   -3.7554   18.2790    0.0000 O   0  0  0  0  0  0  0  0  0  0  0  0
   -2.8528   17.0810    0.0000 P   0  0  0  0  0  0  0  0  0  0  0  0
   -4.0508   16.1783    0.0000 O   0  0  0  0  0  0  0  0  0  0  0  0
   -1.9088   18.2467    0.0000 N   0  0  0  0  0  0  0  0  0  0  0  0
   -0.4272   18.0120    0.0000 C   0  0  0  0  0  0  0  0  0  0  0  0
    0.5167   19.1777    0.0000 C   0  0  0  0  0  0  0  0  0  0  0  0
    1.9983   18.9431    0.0000 C   0  0  0  0  0  0  0  0  0  0  0  0
    2.9423   20.1088    0.0000 C   0  0  0  0  0  0  0  0  0  0  0  0
    4.4238   19.8742    0.0000 C   0  0  0  0  0  0  0  0  0  0  0  0
    5.3678   21.0399    0.0000 C   0  0  0  0  0  0  0  0  0  0  0  0
    6.8493   20.8052    0.0000 O   0  0  0  0  0  0  0  0  0  0  0  0
    2.5358   17.5427    0.0000 C   0  0  0  0  0  0  0  0  0  0  0  0
    1.5918   16.3770    0.0000 C   0  0  0  0  0  3  0  0  0  0  0  0
    0.1103   16.6116    0.0000 N   0  0  0  0  0  0  0  0  0  0  0  0
   -1.9501   15.8829    0.0000 O   0  0  0  0  0  0  0  0  0  0  0  0
   -5.2125    8.8047    0.0000 C   0  0  0  0  0  0  0  0  0  0  0  0
   -5.8226    7.4344    0.0000 C   0  0  0  0  0  0  0  0  0  0  0  0
   -7.3144    7.2776    0.0000 C   0  0  0  0  0  0  0  0  0  0  0  0
   -7.9245    5.9073    0.0000 O   0  0  0  0  0  0  0  0  0  0  0  0
   -8.1961    8.4911    0.0000 N   0  0  0  0  0  0  0  0  0  0  0  0
   -9.6879    8.6479    0.0000 N   0  0  0  0  0  0  0  0  0  0  0  0
   -9.9997   10.1152    0.0000 C   0  0  0  0  0  0  0  0  0  0  0  0
  -11.3700   10.7253    0.0000 N   0  0  0  0  0  0  0  0  0  0  0  0
   -8.7007   10.8652    0.0000 N   0  0  0  0  0  0  0  0  0  0  0  0
   -7.5860    9.8615    0.0000 C   0  0  0  0  0  0  0  0  0  0  0  0
   -6.0942   10.0182    0.0000 N   0  0  0  0  0  0  0  0  0  0  0  0
   -0.4113    6.3098    0.0000 N   0  0  0  0  0  0  0  0  0  0  0  0
   -1.9106    6.3547    0.0000 C   0  0  0  0  0  0  0  0  0  0  0  0
   -2.6214    7.6755    0.0000 C   0  0  0  0  0  3  0  0  0  0  0  0
   -1.8329    8.9516    0.0000 O   0  0  0  0  0  0  0  0  0  0  0  0
   -0.3336    8.9067    0.0000 C   0  0  0  0  0  0  0  0  0  0  0  0
    0.4550   10.1827    0.0000 C   0  0  0  0  0  0  0  0  0  0  0  0
    1.9543   10.1378    0.0000 C   0  0  0  0  0  0  0  0  0  0  0  0
    2.6651    8.8169    0.0000 C   0  0  0  0  0  0  0  0  0  0  0  0
    1.8766    7.5409    0.0000 C   0  0  0  0  0  0  0  0  0  0  0  0
    0.3772    7.5858    0.0000 C   0  0  0  0  0  0  0  0  0  0  0  0
   -5.3120   -0.6406    0.0000 C   0  0  0  0  0  0  0  0  0  0  0  0
   -3.8855   -0.1771    0.0000 C   0  0  0  0  0  0  0  0  0  0  0  0
   -5.6239   -2.1078    0.0000 C   0  0  0  0  0  0  0  0  0  0  0  0
    1.0285    6.3215    0.0000 C   0  0  0  0  0  0  0  0  0  0  0  0
   -0.4713    6.2990    0.0000 C   0  0  0  0  0  0  0  0  0  0  0  0
   -1.2407    7.5867    0.0000 C   0  0  0  0  0  0  0  0  0  0  0  0
   -0.5102    8.8968    0.0000 C   0  0  0  0  0  0  0  0  0  0  0  0
    0.9896    8.9193    0.0000 C   0  0  0  0  0  0  0  0  0  0  0  0
    1.7590    7.6316    0.0000 C   0  0  0  0  0  0  0  0  0  0  0  0
  1  2  1  0
  2  3  1  0
  3  4  1  0
  4  5  1  0
  5  6  1  0
  6  7  1  0
  7  8  2  0
  7  9  1  0
  9 10  1  0
  9 11  1  0
  9 12  1  0
 13 12  1  6
 13 14  1  0
 14 15  1  6
 14 16  1  0
 14 17  1  0
 17 18  1  0
 18 19  1  6
 18 20  1  0
 20 21  1  0
 21 22  1  6
 21  1  1  0
 18  2  1  0
 16  4  1  0
 13  6  1  0
 23 24  1  0
 24 25  1  0
 25 26  1  1
 25 27  1  0
 27 28  1  0
 28 29  1  0
 29 30  1  0
 29 31  1  0
 31 32  2  0
 31 33  1  0
 33 34  2  0
 34 35  1  0
 35 36  2  0
 36 37  1  0
 37 38  2  0
 38 39  1  0
 39 40  1  0
 40 41  1  0
 41 42  1  6
 41 23  1  0
 38 33  1  0
 43 44  1  0
 44 45  1  0
 45 46  1  0
 46 47  1  0
 47 48  1  0
 48 49  1  0
 49 50  1  0
 50 51  1  0
 46 52  1  0
 52 53  1  0
 53 43  1  0
 51 46  1  0
 54 55  1  0
 55 56  2  0
 56 57  1  0
 56 58  1  0
 58 59  1  0
 59 60  1  0
 60 61  1  0
 61 62  1  0
 61 63  1  0
 61 55  1  0
 64 65  1  0
 65 66  2  0
 65 67  1  0
 67 68  2  0
 68 69  1  0
 69 70  1  0
 70 71  1  0
 71 72  1  0
 72 73  1  0
 73 74  1  0
 70 75  2  0
 75 76  1  0
 76 77  1  0
 65 78  1  0
 77 68  1  0
 79 80  2  0
 80 81  1  0
 81 82  2  0
 81 83  1  0
 83 84  1  0
 84 85  1  0
 85 86  1  0
 85 87  2  0
 87 88  1  0
 88 89  2  0
 89 79  1  0
 88 83  1  0
 90 91  1  0
 91 92  1  0
 92 93  1  0
 93 94  1  0
 94 95  2  0
 95 96  1  0
 96 97  2  0
 97 98  1  0
 98 99  2  0
 99 90  1  0
 99 94  1  0
100101  1  0
100102  1  0
103104  2  0
104105  1  0
105106  2  0
106107  1  0
107108  2  0
108103  1  0
  1 35  1  0
 16 43  1  0
  2 91  1  1
 15101  1  0
  3104  1  0
 26 54  1  0
 23 77  1  0
 34 79  1  0
M  RAD  8   1   2   3   2   4   2  16   2  17   2  27   2  76   2  92   2
M  END
$$$$

     RDKit          2D

 99109  0  0  0  0  0  0  0  0999 V2000
    4.4985   -8.7009    0.0000 N   0  0  0  0  0  0  0  0  0  0  0  0
    3.1994   -7.9509    0.0000 C   0  0  0  0  0  0  0  0  0  0  0  0
    2.8112   -6.5020    0.0000 C   0  0  0  0  0  0  0  0  0  0  0  0
    1.3240   -6.3062    0.0000 C   0  0  0  0  0  0  0  0  0  0  0  0
    3.5612   -5.2029    0.0000 C   0  0  0  0  0  3  0  0  0  0  0  0
    5.0101   -4.8147    0.0000 O   0  0  0  0  0  0  0  0  0  0  0  0
    6.3091   -5.5647    0.0000 C   0  0  0  0  0  0  0  0  0  0  0  0
    7.3698   -4.5040    0.0000 N   0  0  0  0  0  0  0  0  0  0  0  0
    8.8187   -4.8923    0.0000 C   0  0  0  0  0  0  0  0  0  0  0  0
    9.2069   -6.3412    0.0000 C   0  0  0  0  0  0  0  0  0  0  0  0
   10.6558   -6.7294    0.0000 C   0  0  0  0  0  0  0  0  0  0  0  0
   12.1047   -7.1176    0.0000 C   0  0  0  0  0  0  0  0  0  0  0  0
   13.5536   -7.5058    0.0000 C   0  0  0  0  0  0  0  0  0  0  0  0
   14.6142   -6.4452    0.0000 C   0  0  0  0  0  0  0  0  0  0  0  0
   16.0631   -6.8334    0.0000 C   0  0  0  0  0  0  0  0  0  0  0  0
   16.4513   -8.2823    0.0000 C   0  0  0  0  0  0  0  0  0  0  0  0
   15.3907   -9.3430    0.0000 C   0  0  0  0  0  0  0  0  0  0  0  0
   13.9418   -8.9547    0.0000 C   0  0  0  0  0  0  0  0  0  0  0  0
    8.1462   -7.4018    0.0000 C   0  0  0  0  0  0  0  0  0  0  0  0
    6.6973   -7.0136    0.0000 C   0  0  0  0  0  0  0  0  0  0  0  0
    5.9473   -8.3126    0.0000 C   0  0  0  0  0  0  0  0  0  0  0  0
    6.8605   -9.5027    0.0000 O   0  0  0  0  0  0  0  0  0  0  0  0
    3.9111  -13.1624    0.0000 C   0  0  0  0  0  0  0  0  0  0  0  0
    5.2969  -12.5883    0.0000 C   0  0  0  0  0  0  0  0  0  0  0  0
    5.4927  -11.1012    0.0000 C   0  0  0  0  0  0  0  0  0  0  0  0
    6.8785  -10.5271    0.0000 C   0  0  0  0  0  0  0  0  0  0  0  0
    4.3027  -10.1880    0.0000 C   0  0  0  0  0  0  0  0  0  0  0  0
    2.9169  -10.7620    0.0000 C   0  0  0  0  0  0  0  0  0  0  0  0
    2.7211  -12.2492    0.0000 C   0  0  0  0  0  0  0  0  0  0  0  0
   17.1238   -5.7728    0.0000 C   0  0  0  0  0  0  0  0  0  0  0  0
   16.7355   -4.3239    0.0000 C   0  0  0  0  0  0  0  0  0  0  0  0
   17.7962   -3.2632    0.0000 C   0  0  0  0  0  0  0  0  0  0  0  0
   19.2451   -3.6514    0.0000 C   0  0  0  0  0  0  0  0  0  0  0  0
   19.6333   -5.1003    0.0000 C   0  0  0  0  0  0  0  0  0  0  0  0
   18.5727   -6.1610    0.0000 C   0  0  0  0  0  0  0  0  0  0  0  0
   18.9609   -7.6099    0.0000 I   0  0  0  0  0  0  0  0  0  0  0  0
    0.0718  -10.0721    0.0000 C   0  0  0  0  0  0  0  0  0  0  0  0
   -1.4154   -9.8763    0.0000 C   0  0  0  0  0  0  0  0  0  0  0  0
   -1.9894   -8.4904    0.0000 C   0  0  0  0  0  0  0  0  0  0  0  0
   -3.4766   -8.2947    0.0000 C   0  0  0  0  0  0  0  0  0  0  0  0
   -1.0763   -7.3004    0.0000 C   0  0  0  0  0  0  0  0  0  0  0  0
    0.4109   -7.4962    0.0000 C   0  0  0  0  0  0  0  0  0  0  0  0
    0.9849   -8.8820    0.0000 C   0  0  0  0  0  0  0  0  0  0  0  0
   -1.6503   -5.9146    0.0000 C   0  0  0  0  0  0  0  0  0  0  0  0
   -0.7372   -4.7246    0.0000 C   0  0  0  0  0  0  0  0  0  0  0  0
   -1.3112   -3.3387    0.0000 C   0  0  0  0  0  0  0  0  0  0  0  0
   -0.3981   -2.1487    0.0000 C   0  0  0  0  0  0  0  0  0  0  0  0
   -2.7984   -3.1430    0.0000 C   0  0  0  0  0  0  0  0  0  0  0  0
   -3.7115   -4.3330    0.0000 C   0  0  0  0  0  0  0  0  0  0  0  0
   -3.1375   -5.7188    0.0000 C   0  0  0  0  0  0  0  0  0  0  0  0
    3.7153  -14.6495    0.0000 C   0  0  0  0  0  0  0  0  0  0  0  0
    4.9053  -15.5627    0.0000 C   0  0  0  0  0  0  0  0  0  0  0  0
    4.7095  -17.0498    0.0000 C   0  0  0  0  0  0  0  0  0  0  0  0
    5.8996  -17.9630    0.0000 C   0  0  0  0  0  0  0  0  0  0  0  0
    5.7038  -19.4501    0.0000 C   0  0  0  0  0  0  0  0  0  0  0  0
    6.8938  -20.3633    0.0000 C   0  0  0  0  0  0  0  0  0  0  0  0
    6.6980  -21.8505    0.0000 C   0  0  0  0  0  0  0  0  0  0  0  0
    7.8881  -22.7636    0.0000 C   0  0  0  0  0  0  0  0  0  0  0  0
    9.2739  -22.1896    0.0000 O   0  0  0  0  0  0  0  0  0  0  0  0
    7.6923  -24.2508    0.0000 O   0  0  0  0  0  0  0  0  0  0  0  0
   -3.3724   -1.7571    0.0000 C   0  0  0  0  0  3  0  0  0  0  0  0
   -4.8596   -1.5614    0.0000 C   0  0  0  0  0  0  0  0  0  0  0  0
   -5.4336   -0.1755    0.0000 C   0  0  0  0  0  0  0  0  0  0  0  0
   -6.9207    0.0203    0.0000 C   0  0  0  0  0  0  0  0  0  0  0  0
   -7.8339   -1.1698    0.0000 O   0  0  0  0  0  0  0  0  0  0  0  0
   -7.4948    1.4061    0.0000 O   0  0  0  0  0  0  0  0  0  0  0  0
   -4.5204    1.0145    0.0000 C   0  0  0  0  0  0  0  0  0  0  0  0
   -3.0333    0.8187    0.0000 C   0  0  0  0  0  0  0  0  0  0  0  0
   -2.1201    2.0087    0.0000 O   0  0  0  0  0  0  0  0  0  0  0  0
   -2.4592   -0.5671    0.0000 C   0  0  0  0  0  0  0  0  0  0  0  0
   -0.9721   -0.7629    0.0000 O   0  0  0  0  0  0  0  0  0  0  0  0
   -7.2599   -2.5556    0.0000 C   0  0  0  0  0  0  0  0  0  0  0  0
   -8.1730   -3.7456    0.0000 C   0  0  0  0  0  0  0  0  0  0  0  0
   -7.5990   -5.1314    0.0000 C   0  0  0  0  0  0  0  0  0  0  0  0
   -8.5121   -6.3215    0.0000 C   0  0  0  0  0  0  0  0  0  0  0  0
   -6.1118   -5.3272    0.0000 C   0  0  0  0  0  0  0  0  0  0  0  0
   -5.1987   -4.1372    0.0000 C   0  0  0  0  0  0  0  0  0  0  0  0
   -5.7727   -2.7514    0.0000 C   0  0  0  0  0  0  0  0  0  0  0  0
   -6.0892  -10.6510    0.0000 N   0  0  0  0  0  0  0  0  0  0  0  0
   -5.7009   -9.2021    0.0000 C   0  0  0  0  0  0  0  0  0  0  0  0
   -6.4509   -7.9031    0.0000 C   0  0  0  0  0  0  0  0  0  0  0  0
   -5.5378   -6.7131    0.0000 C   0  0  0  0  0  0  0  0  0  0  0  0
   -7.8998   -7.5149    0.0000 C   0  0  0  0  0  3  0  0  0  0  0  0
   -9.1989   -8.2649    0.0000 O   0  0  0  0  0  0  0  0  0  0  0  0
   -9.5871   -9.7137    0.0000 C   0  0  0  0  0  0  0  0  0  0  0  0
  -11.0871   -9.7137    0.0000 C   0  0  0  0  0  0  0  0  0  0  0  0
  -11.8371  -11.0128    0.0000 C   0  0  0  0  0  0  0  0  0  0  0  0
  -13.3371  -11.0128    0.0000 C   0  0  0  0  0  0  0  0  0  0  0  0
  -14.8371  -11.0128    0.0000 C   0  0  0  0  0  0  0  0  0  0  0  0
  -16.3371  -11.0128    0.0000 C   0  0  0  0  0  0  0  0  0  0  0  0
  -16.3371   -9.5128    0.0000 C   0  0  0  0  0  0  0  0  0  0  0  0
  -16.3371  -12.5128    0.0000 C   0  0  0  0  0  0  0  0  0  0  0  0
  -17.8371  -11.0128    0.0000 O   0  0  0  0  0  0  0  0  0  0  0  0
  -11.0871  -12.3118    0.0000 C   0  0  0  0  0  0  0  0  0  0  0  0
   -9.5871  -12.3118    0.0000 C   0  0  0  0  0  0  0  0  0  0  0  0
   -8.8371  -11.0128    0.0000 C   0  0  0  0  0  0  0  0  0  0  0  0
   -7.3882  -11.4010    0.0000 S   0  0  0  0  0  0  0  0  0  0  0  0
   -8.1382  -12.7000    0.0000 O   0  0  0  0  0  0  0  0  0  0  0  0
   -6.3275  -12.4617    0.0000 O   0  0  0  0  0  0  0  0  0  0  0  0
  1  2  1  0
  2  3  1  0
  3  4  1  6
  3  5  1  0
  5  6  1  0
  6  7  1  0
  7  8  2  0
  8  9  1  0
  9 10  2  0
 10 11  1  0
 11 12  3  0
 12 13  1  0
 13 14  2  0
 14 15  1  0
 15 16  2  0
 16 17  1  0
 17 18  2  0
 10 19  1  0
 19 20  2  0
 20 21  1  0
 21 22  2  0
 21  1  1  0
 20  7  1  0
 18 13  1  0
 23 24  2  0
 24 25  1  0
 25 26  1  0
 25 27  2  0
 27 28  1  0
 28 29  2  0
 29 23  1  0
 30 31  2  0
 31 32  1  0
 32 33  2  0
 33 34  1  0
 34 35  2  0
 35 36  1  0
 35 30  1  0
 37 38  2  0
 38 39  1  0
 39 40  1  0
 39 41  2  0
 41 42  1  0
 42 43  2  0
 43 37  1  0
 44 45  2  0
 45 46  1  0
 46 47  1  0
 46 48  2  0
 48 49  1  0
 49 50  2  0
 50 44  1  0
 51 52  1  0
 52 53  1  0
 53 54  1  0
 54 55  1  0
 55 56  1  0
 56 57  1  0
 57 58  1  0
 58 59  2  0
 58 60  1  0
 61 62  1  0
 62 63  1  0
 63 64  1  0
 64 65  2  0
 64 66  1  0
 63 67  2  0
 67 68  1  0
 68 69  1  1
 68 70  1  0
 70 71  1  1
 70 61  1  0
 72 73  2  0
 73 74  1  0
 74 75  1  0
 74 76  2  0
 76 77  1  0
 77 78  2  0
 78 72  1  0
 79 80  1  0
 80 81  1  0
 81 82  1  1
 81 83  1  0
 83 84  1  0
 84 85  1  0
 85 86  2  0
 86 87  1  0
 87 88  1  0
 88 89  3  0
 89 90  1  0
 90 91  1  0
 90 92  1  0
 90 93  1  0
 87 94  2  0
 94 95  1  0
 95 96  2  0
 96 97  1  0
 97 98  2  0
 97 99  2  0
 97 79  1  0
 96 85  1  0
  1 27  1  0
 15 30  1  0
  4 42  1  0
 23 51  1  0
 41 44  1  0
 48 61  1  0
 49 77  1  0
 76 82  1  0
M  RAD  3   5   2  61   2  83   2
M  END
$$$$

     RDKit          2D

 89 99  0  0  0  0  0  0  0  0999 V2000
   -6.2430  -11.5911    0.0000 N   0  0  0  0  0  0  0  0  0  0  0  0
   -6.6460  -13.0360    0.0000 C   0  0  0  0  0  0  0  0  0  0  0  0
   -6.3822  -14.5126    0.0000 C   0  0  0  0  0  0  0  0  0  0  0  0
   -7.7630  -15.0984    0.0000 C   0  0  0  0  0  0  0  0  0  0  0  0
   -5.5038  -15.7285    0.0000 C   0  0  0  0  0  3  0  0  0  0  0  0
   -4.1848  -16.4429    0.0000 O   0  0  0  0  0  0  0  0  0  0  0  0
   -2.6865  -16.5143    0.0000 C   0  0  0  0  0  0  0  0  0  0  0  0
   -1.3056  -15.9285    0.0000 C   0  0  0  0  0  0  0  0  0  0  0  0
   -0.3157  -14.8016    0.0000 C   0  0  0  0  0  0  0  0  0  0  0  0
    0.0873  -13.3567    0.0000 C   0  0  0  0  0  0  0  0  0  0  0  0
   -0.1765  -11.8801    0.0000 C   0  0  0  0  0  0  0  0  0  0  0  0
    0.7956  -11.7264    0.0000 C   0  0  0  0  0  0  0  0  0  0  0  0
   -1.0549  -10.6642    0.0000 O   0  0  0  0  0  0  0  0  0  0  0  0
   -2.3738   -9.9498    0.0000 C   0  0  0  0  0  0  0  0  0  0  0  0
   -1.5629   -8.6879    0.0000 C   0  0  0  0  0  0  0  0  0  0  0  0
   -2.2502   -7.3547    0.0000 C   0  0  0  0  0  0  0  0  0  0  0  0
   -3.7485   -7.2833    0.0000 C   0  0  0  0  0  0  0  0  0  0  0  0
   -4.5595   -8.5452    0.0000 C   0  0  0  0  0  0  0  0  0  0  0  0
   -3.8721   -9.8784    0.0000 C   0  0  0  0  0  0  0  0  0  0  0  0
   -5.2530  -10.4642    0.0000 C   0  0  0  0  0  0  0  0  0  0  0  0
   -5.7553   -9.2111    0.0000 O   0  0  0  0  0  0  0  0  0  0  0  0
   -7.5619  -10.8768    0.0000 C   0  0  0  0  0  0  0  0  0  0  0  0
   -8.8401  -11.6618    0.0000 C   0  0  0  0  0  0  0  0  0  0  0  0
   -8.7993  -13.1613    0.0000 C   0  0  0  0  0  0  0  0  0  0  0  0
  -10.0775  -13.9463    0.0000 C   0  0  0  0  0  0  0  0  0  0  0  0
  -10.0367  -15.4457    0.0000 N   0  0  0  0  0  0  0  0  0  0  0  0
  -11.3964  -13.2319    0.0000 C   0  0  0  0  0  0  0  0  0  0  0  0
  -11.4372  -11.7325    0.0000 C   0  0  0  0  0  0  0  0  0  0  0  0
  -10.1591  -10.9474    0.0000 C   0  0  0  0  0  0  0  0  0  0  0  0
  -10.1999   -9.4480    0.0000 C   0  0  0  0  0  0  0  0  0  0  0  0
  -11.5188   -8.7336    0.0000 C   0  0  0  0  0  0  0  0  0  0  0  0
  -11.5596   -7.2341    0.0000 C   0  0  0  0  0  0  0  0  0  0  0  0
  -10.2814   -6.4491    0.0000 C   0  0  0  0  0  0  0  0  0  0  0  0
  -10.3222   -4.9496    0.0000 N   0  0  0  0  0  0  0  0  0  0  0  0
   -8.9625   -7.1635    0.0000 C   0  0  0  0  0  0  0  0  0  0  0  0
   -8.9217   -8.6629    0.0000 C   0  0  0  0  0  0  0  0  0  0  0  0
   -7.6027   -9.3773    0.0000 N   0  0  0  0  0  4  0  0  0  0  0  0
   -6.3246   -8.5923    0.0000 C   0  0  0  0  0  0  0  0  0  0  0  0
   -6.3654   -7.0928    0.0000 C   0  0  0  0  0  0  0  0  0  0  0  0
   -1.4392   -6.0928    0.0000 N   0  0  0  0  0  0  0  0  0  0  0  0
   -0.0000   -6.5154    0.0000 C   0  0  0  0  0  0  0  0  0  0  0  0
    1.4392   -6.0928    0.0000 C   0  0  0  0  0  0  0  0  0  0  0  0
    2.2502   -7.3547    0.0000 C   0  0  0  0  0  0  0  0  0  0  0  0
    2.4215   -4.9592    0.0000 C   0  0  0  0  0  3  0  0  0  0  0  0
    2.6350   -3.4744    0.0000 O   0  0  0  0  0  0  0  0  0  0  0  0
    2.0119   -2.1100    0.0000 C   0  0  0  0  0  0  0  0  0  0  0  0
    0.7500   -1.2990    0.0000 C   0  0  0  0  0  0  0  0  0  0  0  0
    1.5000    0.0000    0.0000 C   0  0  0  0  0  0  0  0  0  0  0  0
    0.7500    1.2990    0.0000 C   0  0  0  0  0  0  0  0  0  0  0  0
   -0.7500    1.2990    0.0000 C   0  0  0  0  0  0  0  0  0  0  0  0
   -1.5000    0.0000    0.0000 C   0  0  0  0  0  0  0  0  0  0  0  0
   -0.7500   -1.2990    0.0000 C   0  0  0  0  0  0  0  0  0  0  0  0
   -2.0119   -2.1100    0.0000 C   0  0  0  0  0  0  0  0  0  0  0  0
   -2.6350   -3.4744    0.0000 C   0  0  0  0  0  0  0  0  0  0  0  0
   -4.1252   -3.3035    0.0000 N   0  0  0  0  0  0  0  0  0  0  0  0
   -5.1395   -4.4086    0.0000 C   0  0  0  0  0  0  0  0  0  0  0  0
   -4.4231   -1.8333    0.0000 C   0  0  0  0  0  0  0  0  0  0  0  0
   -5.7150   -1.0710    0.0000 C   0  0  0  0  0  0  0  0  0  0  0  0
   -5.7007    0.4289    0.0000 C   0  0  0  0  0  0  0  0  0  0  0  0
   -4.3946    1.1665    0.0000 C   0  0  0  0  0  0  0  0  0  0  0  0
   -3.1027    0.4042    0.0000 C   0  0  0  0  0  0  0  0  0  0  0  0
   -3.1170   -1.0957    0.0000 C   0  0  0  0  0  0  0  0  0  0  0  0
   -2.4215   -4.9592    0.0000 C   0  0  0  0  0  0  0  0  0  0  0  0
   -3.7860   -5.5823    0.0000 O   0  0  0  0  0  0  0  0  0  0  0  0
   -7.9462  -16.5872    0.0000 C   0  0  0  0  0  0  0  0  0  0  0  0
   -9.3271  -17.1730    0.0000 C   0  0  0  0  0  0  0  0  0  0  0  0
  -10.5248  -16.2700    0.0000 O   0  0  0  0  0  0  0  0  0  0  0  0
   -9.5102  -18.6617    0.0000 C   0  0  0  0  0  0  0  0  0  0  0  0
  -10.8911  -19.2475    0.0000 O   0  0  0  0  0  0  0  0  0  0  0  0
   -6.7484  -17.4902    0.0000 C   0  0  0  0  0  0  0  0  0  0  0  0
   -5.3675  -16.9044    0.0000 O   0  0  0  0  0  0  0  0  0  0  0  0
   -6.9316  -18.9790    0.0000 C   0  0  0  0  0  0  0  0  0  0  0  0
   -8.3125  -19.5647    0.0000 O   0  0  0  0  0  0  0  0  0  0  0  0
   -5.7338  -19.8819    0.0000 C   0  0  0  0  0  0  0  0  0  0  0  0
   -4.3529  -19.2962    0.0000 O   0  0  0  0  0  0  0  0  0  0  0  0
   -5.9170  -21.3707    0.0000 O   0  0  0  0  0  0  0  0  0  0  0  0
    1.5629   -8.6879    0.0000 C   0  0  0  0  0  0  0  0  0  0  0  0
    2.2375  -10.0277    0.0000 N   0  0  0  0  0  0  0  0  0  0  0  0
    1.1718  -11.0833    0.0000 C   0  0  0  0  0  0  0  0  0  0  0  0
   -0.1615  -10.3959    0.0000 C   0  0  0  0  0  0  0  0  0  0  0  0
    0.0802   -8.9155    0.0000 N   0  0  0  0  0  0  0  0  0  0  0  0
   -1.4234  -11.2069    0.0000 C   0  0  0  0  0  0  0  0  0  0  0  0
   -2.8833  -10.8626    0.0000 O   0  0  0  0  0  0  0  0  0  0  0  0
   -1.3520  -12.7052    0.0000 N   0  0  0  0  0  0  0  0  0  0  0  0
   -2.6139  -13.5162    0.0000 C   0  0  0  0  0  0  0  0  0  0  0  0
   -0.0187  -13.3925    0.0000 C   0  0  0  0  0  0  0  0  0  0  0  0
   -0.3120  -14.8636    0.0000 O   0  0  0  0  0  0  0  0  0  0  0  0
    1.2432  -12.5816    0.0000 N   0  0  0  0  0  0  0  0  0  0  0  0
    2.5764  -13.2689    0.0000 C   0  0  0  0  0  0  0  0  0  0  0  0
  1  2  1  0
  2  3  1  0
  3  4  1  6
  3  5  1  0
  5  6  1  0
  6  7  1  0
  7  8  1  0
  8  9  1  0
  9 10  1  0
 10 11  1  0
 11 12  1  6
 11 13  1  0
 13 14  1  0
 14 15  2  0
 15 16  1  0
 16 17  2  0
 17 18  1  0
 18 19  2  0
 19 20  1  0
 20 21  2  0
 20  1  1  0
 19 14  1  0
 22 23  1  0
 23 24  2  0
 24 25  1  0
 25 26  1  0
 25 27  2  0
 27 28  1  0
 28 29  2  0
 29 30  1  0
 30 31  2  0
 31 32  1  0
 32 33  2  0
 33 34  1  0
 33 35  1  0
 35 36  2  0
 36 37  1  0
 37 38  1  0
 38 39  1  0
 37 22  2  0
 29 23  1  0
 36 30  1  0
 40 41  1  0
 41 42  1  0
 42 43  1  6
 42 44  1  0
 44 45  1  0
 45 46  1  0
 46 47  1  0
 47 48  2  0
 48 49  1  0
 49 50  2  0
 50 51  1  0
 51 52  2  0
 52 53  1  0
 53 54  2  0
 54 55  1  0
 55 56  1  0
 55 57  1  0
 57 58  2  0
 58 59  1  0
 59 60  2  0
 60 61  1  0
 61 62  2  0
 54 63  1  0
 63 64  2  0
 63 40  1  0
 52 47  1  0
 62 53  1  0
 62 57  1  0
 65 66  1  0
 66 67  1  0
 66 68  1  0
 68 69  1  0
 65 70  1  0
 70 71  1  0
 70 72  1  0
 72 73  1  0
 72 74  1  0
 74 75  2  0
 74 76  1  0
 77 78  2  0
 78 79  1  0
 79 80  2  0
 80 81  1  0
 80 82  1  0
 82 83  2  0
 82 84  1  0
 84 85  1  0
 84 86  1  0
 86 87  2  0
 86 88  1  0
 88 89  1  0
 81 77  1  0
 88 79  1  0
  1 22  1  0
 16 40  1  0
  4 65  1  0
 43 77  1  0
M  CHG  1  37   1
M  RAD  2   5   2  44   2
M  END
$$$$

     RDKit          2D

132147  0  0  0  0  0  0  0  0999 V2000
   27.8228   -7.7711    0.0000 N   0  0  0  0  0  0  0  0  0  0  0  0
   28.0186   -6.2840    0.0000 C   0  0  0  0  0  0  0  0  0  0  0  0
   29.2086   -5.3708    0.0000 C   0  0  0  0  0  0  0  0  0  0  0  0
   28.8204   -3.9219    0.0000 C   0  0  0  0  0  0  0  0  0  0  0  0
   30.6958   -5.5666    0.0000 C   0  0  0  0  0  3  0  0  0  0  0  0
   31.6090   -6.7566    0.0000 O   0  0  0  0  0  0  0  0  0  0  0  0
   31.4132   -8.2438    0.0000 C   0  0  0  0  0  0  0  0  0  0  0  0
   32.7990   -8.8178    0.0000 C   0  0  0  0  0  0  0  0  0  0  0  0
   32.9948  -10.3050    0.0000 C   0  0  0  0  0  0  0  0  0  0  0  0
   34.3806  -10.8790    0.0000 C   0  0  0  0  0  0  0  0  0  0  0  0
   35.7664  -11.4530    0.0000 C   0  0  0  0  0  0  0  0  0  0  0  0
   37.1522  -12.0271    0.0000 C   0  0  0  0  0  0  0  0  0  0  0  0
   37.3480  -13.5142    0.0000 C   0  0  0  0  0  0  0  0  0  0  0  0
   38.7338  -14.0883    0.0000 C   0  0  0  0  0  0  0  0  0  0  0  0
   39.9239  -13.1751    0.0000 C   0  0  0  0  0  0  0  0  0  0  0  0
   39.7281  -11.6880    0.0000 C   0  0  0  0  0  0  0  0  0  0  0  0
   38.3423  -11.1139    0.0000 C   0  0  0  0  0  0  0  0  0  0  0  0
   31.8047  -11.2181    0.0000 C   0  0  0  0  0  0  0  0  0  0  0  0
   30.4189  -10.6441    0.0000 C   0  0  0  0  0  0  0  0  0  0  0  0
   30.2231   -9.1569    0.0000 C   0  0  0  0  0  0  0  0  0  0  0  0
   28.7360   -8.9612    0.0000 S   0  0  0  0  0  0  0  0  0  0  0  0
   27.3501   -9.5352    0.0000 O   0  0  0  0  0  0  0  0  0  0  0  0
   28.9318  -10.4483    0.0000 O   0  0  0  0  0  0  0  0  0  0  0  0
   32.3906   -2.1888    0.0000 C   0  0  0  0  0  0  0  0  0  0  0  0
   32.0024   -0.7399    0.0000 C   0  0  0  0  0  0  0  0  0  0  0  0
   30.5535   -0.3517    0.0000 C   0  0  0  0  0  0  0  0  0  0  0  0
   30.1653    1.0972    0.0000 C   0  0  0  0  0  0  0  0  0  0  0  0
   29.4928   -1.4124    0.0000 C   0  0  0  0  0  0  0  0  0  0  0  0
   29.8811   -2.8613    0.0000 C   0  0  0  0  0  0  0  0  0  0  0  0
   31.3300   -3.2495    0.0000 C   0  0  0  0  0  0  0  0  0  0  0  0
   17.0950   -5.1892    0.0000 N   0  0  0  0  0  0  0  0  0  0  0  0
   16.3450   -6.4883    0.0000 C   0  0  0  0  0  0  0  0  0  0  0  0
   16.7332   -7.9371    0.0000 C   0  0  0  0  0  0  0  0  0  0  0  0
   15.5432   -8.8503    0.0000 C   0  0  0  0  0  0  0  0  0  0  0  0
   18.0322   -8.6871    0.0000 C   0  0  0  0  0  3  0  0  0  0  0  0
   19.4811   -8.2989    0.0000 O   0  0  0  0  0  0  0  0  0  0  0  0
   20.2311   -6.9999    0.0000 C   0  0  0  0  0  0  0  0  0  0  0  0
   21.6800   -7.3881    0.0000 N   0  0  0  0  0  0  0  0  0  0  0  0
   22.7407   -6.3274    0.0000 C   0  0  0  0  0  0  0  0  0  0  0  0
   22.3524   -4.8786    0.0000 C   0  0  0  0  0  0  0  0  0  0  0  0
   23.4131   -3.8179    0.0000 C   0  0  0  0  0  0  0  0  0  0  0  0
   24.4737   -2.7572    0.0000 C   0  0  0  0  0  0  0  0  0  0  0  0
   25.5344   -1.6966    0.0000 C   0  0  0  0  0  0  0  0  0  0  0  0
   26.9833   -2.0848    0.0000 C   0  0  0  0  0  0  0  0  0  0  0  0
   28.0440   -1.0241    0.0000 C   0  0  0  0  0  0  0  0  0  0  0  0
   27.6557    0.4247    0.0000 C   0  0  0  0  0  0  0  0  0  0  0  0
   26.2068    0.8130    0.0000 C   0  0  0  0  0  0  0  0  0  0  0  0
   25.1462   -0.2477    0.0000 C   0  0  0  0  0  0  0  0  0  0  0  0
   20.9035   -4.4903    0.0000 C   0  0  0  0  0  0  0  0  0  0  0  0
   19.8429   -5.5510    0.0000 C   0  0  0  0  0  0  0  0  0  0  0  0
   18.5438   -4.8010    0.0000 C   0  0  0  0  0  0  0  0  0  0  0  0
   18.7396   -3.3138    0.0000 O   0  0  0  0  0  0  0  0  0  0  0  0
    4.9598   -0.6382    0.0000 N   0  0  0  0  0  0  0  0  0  0  0  0
    3.5740   -1.2123    0.0000 C   0  0  0  0  0  0  0  0  0  0  0  0
    3.0000   -2.5981    0.0000 C   0  0  0  0  0  0  0  0  0  0  0  0
    1.5000   -2.5981    0.0000 C   0  0  0  0  0  0  0  0  0  0  0  0
    3.5740   -3.9839    0.0000 C   0  0  0  0  0  3  0  0  0  0  0  0
    4.9598   -4.5579    0.0000 O   0  0  0  0  0  0  0  0  0  0  0  0
    6.3457   -3.9839    0.0000 C   0  0  0  0  0  0  0  0  0  0  0  0
    7.2588   -5.1739    0.0000 N   0  0  0  0  0  0  0  0  0  0  0  0
    8.7460   -4.9781    0.0000 C   0  0  0  0  0  0  0  0  0  0  0  0
    9.3200   -3.5923    0.0000 C   0  0  0  0  0  0  0  0  0  0  0  0
   10.8072   -3.3965    0.0000 C   0  0  0  0  0  0  0  0  0  0  0  0
   12.2943   -3.2007    0.0000 C   0  0  0  0  0  0  0  0  0  0  0  0
   13.7815   -3.0049    0.0000 C   0  0  0  0  0  0  0  0  0  0  0  0
   14.6946   -4.1950    0.0000 C   0  0  0  0  0  0  0  0  0  0  0  0
   16.1818   -3.9992    0.0000 C   0  0  0  0  0  0  0  0  0  0  0  0
   16.7558   -2.6134    0.0000 C   0  0  0  0  0  0  0  0  0  0  0  0
   15.8427   -1.4233    0.0000 C   0  0  0  0  0  0  0  0  0  0  0  0
   14.3555   -1.6191    0.0000 C   0  0  0  0  0  0  0  0  0  0  0  0
    8.4069   -2.4023    0.0000 C   0  0  0  0  0  0  0  0  0  0  0  0
    6.9197   -2.5981    0.0000 C   0  0  0  0  0  0  0  0  0  0  0  0
    6.3457   -1.2123    0.0000 C   0  0  0  0  0  0  0  0  0  0  0  0
    7.4063   -0.1516    0.0000 O   0  0  0  0  0  0  0  0  0  0  0  0
   36.7373   -3.3535    0.0000 C   0  0  0  0  0  0  0  0  0  0  0  0
   35.6766   -4.4142    0.0000 C   0  0  0  0  0  0  0  0  0  0  0  0
   34.2277   -4.0260    0.0000 C   0  0  0  0  0  0  0  0  0  0  0  0
   33.1671   -5.0866    0.0000 C   0  0  0  0  0  0  0  0  0  0  0  0
   33.8395   -2.5771    0.0000 C   0  0  0  0  0  0  0  0  0  0  0  0
   34.9002   -1.5164    0.0000 C   0  0  0  0  0  0  0  0  0  0  0  0
   36.3491   -1.9046    0.0000 C   0  0  0  0  0  0  0  0  0  0  0  0
   14.1573   -8.2763    0.0000 C   0  0  0  0  0  0  0  0  0  0  0  0
   13.9615   -6.7891    0.0000 O   0  0  0  0  0  0  0  0  0  0  0  0
   12.9673   -9.1894    0.0000 C   0  0  0  0  0  0  0  0  0  0  0  0
   11.5815   -8.6154    0.0000 C   0  0  0  0  0  0  0  0  0  0  0  0
   10.3915   -9.5285    0.0000 C   0  0  0  0  0  0  0  0  0  0  0  0
    9.0056   -8.9545    0.0000 C   0  0  0  0  0  0  0  0  0  0  0  0
    7.8156   -9.8676    0.0000 C   0  0  0  0  0  0  0  0  0  0  0  0
    6.4298   -9.2936    0.0000 C   0  0  0  0  0  0  0  0  0  0  0  0
    5.2398  -10.2068    0.0000 C   0  0  0  0  0  0  0  0  0  0  0  0
    3.8539   -9.6327    0.0000 C   0  0  0  0  0  0  0  0  0  0  0  0
    2.6639  -10.5459    0.0000 C   0  0  0  0  0  0  0  0  0  0  0  0
    1.2781   -9.9718    0.0000 C   0  0  0  0  0  0  0  0  0  0  0  0
    0.0881  -10.8850    0.0000 C   0  0  0  0  0  0  0  0  0  0  0  0
   -1.2978  -10.3110    0.0000 O   0  0  0  0  0  0  0  0  0  0  0  0
   -6.3481   -1.2990    0.0000 N   0  0  0  0  0  0  0  0  0  0  0  0
   -6.3481   -2.7990    0.0000 C   0  0  0  0  0  0  0  0  0  0  0  0
   -5.5981   -4.0981    0.0000 C   0  0  0  0  0  0  0  0  0  0  0  0
   -6.6587   -5.1587    0.0000 C   0  0  0  0  0  0  0  0  0  0  0  0
   -4.2990   -4.8481    0.0000 C   0  0  0  0  0  3  0  0  0  0  0  0
   -2.7990   -4.8481    0.0000 C   0  0  0  0  0  0  0  0  0  0  0  0
   -1.5000   -4.0981    0.0000 N   0  0  0  0  0  0  0  0  0  0  0  0
   -0.4393   -5.1587    0.0000 C   0  0  0  0  0  0  0  0  0  0  0  0
   -0.7500   -2.7990    0.0000 C   0  0  0  0  0  0  0  0  0  0  0  0
    0.6989   -3.1873    0.0000 O   0  0  0  0  0  0  0  0  0  0  0  0
   -0.7500   -1.2990    0.0000 C   0  0  0  0  0  0  0  0  0  0  0  0
    0.7500   -1.2990    0.0000 C   0  0  0  0  0  0  0  0  0  0  0  0
    1.5000    0.0000    0.0000 C   0  0  0  0  0  0  0  0  0  0  0  0
    0.7500    1.2990    0.0000 C   0  0  0  0  0  0  0  0  0  0  0  0
   -0.7500    1.2990    0.0000 C   0  0  0  0  0  0  0  0  0  0  0  0
   -1.5000    0.0000    0.0000 C   0  0  0  0  0  0  0  0  0  0  0  0
   -2.7990    0.7500    0.0000 O   0  0  0  0  0  0  0  0  0  0  0  0
   -4.2990    0.7500    0.0000 C   0  0  0  0  0  0  0  0  0  0  0  0
   -5.5981    0.0000    0.0000 C   0  0  0  0  0  0  0  0  0  0  0  0
   -6.6587    1.0607    0.0000 C   0  0  0  0  0  0  0  0  0  0  0  0
    4.9598    0.8618    0.0000 C   0  0  0  0  0  0  0  0  0  0  0  0
    3.7463    1.7434    0.0000 C   0  0  0  0  0  0  0  0  0  0  0  0
    4.2098    3.1700    0.0000 C   0  0  0  0  0  0  0  0  0  0  0  0
    5.7098    3.1700    0.0000 N   0  0  0  0  0  0  0  0  0  0  0  0
    6.5915    4.3836    0.0000 C   0  0  0  0  0  0  0  0  0  0  0  0
    6.1734    1.7434    0.0000 N   0  0  0  0  0  0  0  0  0  0  0  0
   26.3739   -8.1594    0.0000 C   0  0  0  0  0  0  0  0  0  0  0  0
   25.3133   -7.0987    0.0000 C   0  0  0  0  0  0  0  0  0  0  0  0
   23.8644   -7.4869    0.0000 C   0  0  0  0  0  0  0  0  0  0  0  0
   23.4762   -8.9358    0.0000 C   0  0  0  0  0  0  0  0  0  0  0  0
   24.5368   -9.9965    0.0000 C   0  0  0  0  0  0  0  0  0  0  0  0
   25.9857   -9.6082    0.0000 C   0  0  0  0  0  0  0  0  0  0  0  0
   23.8558  -11.3330    0.0000 C   0  0  0  0  0  0  0  0  0  0  0  0
   24.5368  -12.6695    0.0000 O   0  0  0  0  0  0  0  0  0  0  0  0
   22.3743  -11.0983    0.0000 C   0  0  0  0  0  0  0  0  0  0  0  0
   21.3136  -12.1590    0.0000 O   0  0  0  0  0  0  0  0  0  0  0  0
   22.1396   -9.6168    0.0000 N   0  0  0  0  0  0  0  0  0  0  0  0
  1  2  1  0
  2  3  1  0
  3  4  1  6
  3  5  1  0
  5  6  1  0
  6  7  1  0
  7  8  2  0
  8  9  1  0
  9 10  1  0
 10 11  3  0
 11 12  1  0
 12 13  2  0
 13 14  1  0
 14 15  2  0
 15 16  1  0
 16 17  2  0
  9 18  2  0
 18 19  1  0
 19 20  2  0
 20 21  1  0
 21 22  2  0
 21 23  2  0
 21  1  1  0
 20  7  1  0
 17 12  1  0
 24 25  2  0
 25 26  1  0
 26 27  1  0
 26 28  2  0
 28 29  1  0
 29 30  2  0
 30 24  1  0
 31 32  1  0
 32 33  1  0
 33 34  1  1
 33 35  1  0
 35 36  1  0
 36 37  1  0
 37 38  2  0
 38 39  1  0
 39 40  2  0
 40 41  1  0
 41 42  3  0
 42 43  1  0
 43 44  2  0
 44 45  1  0
 45 46  2  0
 46 47  1  0
 47 48  2  0
 40 49  1  0
 49 50  2  0
 50 51  1  0
 51 52  2  0
 51 31  1  0
 50 37  1  0
 48 43  1  0
 53 54  1  0
 54 55  1  0
 55 56  1  1
 55 57  1  0
 57 58  1  0
 58 59  1  0
 59 60  2  0
 60 61  1  0
 61 62  2  0
 62 63  1  0
 63 64  3  0
 64 65  1  0
 65 66  2  0
 66 67  1  0
 67 68  2  0
 68 69  1  0
 69 70  2  0
 62 71  1  0
 71 72  2  0
 72 73  1  0
 73 74  2  0
 73 53  1  0
 72 59  1  0
 70 65  1  0
 75 76  2  0
 76 77  1  0
 77 78  1  0
 77 79  2  0
 79 80  1  0
 80 81  2  0
 81 75  1  0
 82 83  2  0
 82 84  1  0
 84 85  1  0
 85 86  1  0
 86 87  1  0
 87 88  1  0
 88 89  1  0
 89 90  1  0
 90 91  1  0
 91 92  1  0
 92 93  1  0
 93 94  1  0
 94 95  2  0
 96 97  1  0
 97 98  1  0
 98 99  1  1
 98100  1  0
100101  1  0
101102  1  0
102103  1  0
102104  1  0
104105  2  0
104106  1  0
106107  2  0
107108  1  0
108109  2  0
109110  1  0
110111  2  0
111112  1  0
112113  1  0
113114  1  0
114115  1  6
114 96  1  0
111106  1  0
116117  1  0
117118  2  0
118119  1  0
119120  1  0
119121  1  0
121116  2  0
122123  2  0
123124  1  0
124125  2  0
125126  1  0
126127  2  0
126128  1  0
128129  2  0
128130  1  0
130131  2  0
130132  1  0
127122  1  0
132125  1  0
  4 29  1  0
  1122  1  0
 28 45  1  0
 24 79  1  0
 31 67  1  0
 34 82  1  0
 56107  1  0
 53116  1  0
M  RAD  4   5   2  35   2  57   2 100   2
M  END
$$$$
